<?xml version="1.0" encoding="UTF-8"?>

<!-- generated on 2024-11-06 19:42:31 by Eclipse SUMO polyconvert Version 1.21.0
<polyconvertConfiguration xmlns:xsi="http://www.w3.org/2001/XMLSchema-instance" xsi:noNamespaceSchemaLocation="http://sumo.dlr.de/xsd/polyconvertConfiguration.xsd">

    <input>
        <net-file value="bnt.net.xml"/>
        <osm-files value="bnt.osm"/>
        <type-file value="typemap.xml"/>
    </input>

    <output>
        <output-file value="bnt.poly.xml"/>
    </output>

</polyconvertConfiguration>
-->

<additional xmlns:xsi="http://www.w3.org/2001/XMLSchema-instance" xsi:noNamespaceSchemaLocation="http://sumo.dlr.de/xsd/additional_file.xsd">
    <location netOffset="-465139.13,-2390336.47" convBoundary="-55837.43,-83050.33,36898.47,41173.11" origBoundary="86.128119,20.863495,87.019689,21.987859" projParameter="+proj=utm +zone=45 +ellps=WGS84 +datum=WGS84 +units=m +no_defs"/>

    <poly id="1146957773" type="building" color="255,230,230" fill="1" layer="-1.00" shape="18936.241841,13317.262924 18946.542968,13318.669414 18947.785354,13309.736073 18937.484211,13308.318513 18936.241841,13317.262924"/>
    <poly id="126683646" type="water" color="181,209,209" fill="0" layer="-4.00" shape="5765.997261,20151.858464 6130.325754,20151.198003 6418.285292,20341.324959 6725.590606,20626.733406 6860.277706,20893.390059 7052.281049,21045.555244 7281.978258,20816.393376 7510.952465,20167.830568 7778.263970,19500.113562 7873.270306,18985.193041 7852.868304,18260.721745 7737.159079,17879.577730 8062.544259,17497.688302 8637.544121,17286.998529 8982.501748,17133.891169 9115.888803,16599.769572 9019.531821,16313.895873 8769.890691,16123.615423 8348.090791,16219.652853 7887.712043,16182.281733 7618.680522,15877.637870 7733.046927,15457.918165 8269.691876,15209.106764 8749.371534,15303.659002 9190.827543,15493.640963 9632.042468,15531.080034 10360.985781,15587.158403 10859.706426,15605.472467 11127.717261,15261.809217 11338.179387,14899.175584 11260.949181,14556.015614 11068.558408,14174.874440 11029.711823,13850.718392 11182.943114,13697.924849 11605.186342,13849.871340 11989.275741,14154.460447 12200.545411,14344.878212 12545.663711,14229.968449 12679.750235,14096.275686 12832.627040,13676.497287 12774.606098,13333.282165 12505.584314,13009.420399 12275.225167,12895.308526 11948.918337,12762.266318 11871.746224,12457.201294 11852.178584,12190.206289 12292.741174,11712.734232 12676.577457,11807.573360 13003.105812,12093.228807 13310.192161,12188.176950 13885.700759,12168.341801 14115.588955,11920.079163 14172.501434,11424.079620 14191.046366,10928.118982 14152.132604,10508.515386 14170.702854,10031.592618 14362.081655,9649.823415 14246.419015,9230.285318 14270.338433,8927.891843 14454.325699,8756.718437 14773.503371,8658.638027 15154.177939,8633.749054 15449.001724,8706.639058 15682.230793,8620.900440 16074.885558,8339.601071 16258.856234,8131.823939 16344.518757,7863.098757 16430.268365,7667.634647 16417.740148,7460.064418 16134.863921,7118.494598 16024.039861,6874.403962 16072.840651,6593.490649"/>
    <poly id="600823445" type="water" color="181,209,209" fill="1" layer="-4.00" shape="18236.444798,12994.094590 18258.623479,12980.833896 18276.396594,13007.290800 18320.772271,12998.423446 18338.536155,13016.059006 18351.851166,13011.629018 18356.273922,12998.386788 18387.325530,12985.117123 18360.660288,12949.847843 18369.469481,12888.066677 18413.818327,12852.724283 18431.520121,12799.755443 18471.436076,12777.644362 18471.427042,12768.822952 18400.412383,12768.895839 18329.435415,12795.444331 18293.933313,12795.481045 18258.449527,12813.171729 18222.937123,12813.208611 18178.580521,12830.897633 18151.951417,12830.925415 18089.848035,12857.465713 18045.462820,12857.512292 18005.556938,12888.445856 18005.584825,12914.921162 18023.349139,12932.545306 18023.395573,12976.674508 18067.836017,13029.567415 18059.000281,13064.884522 18076.755118,13073.687312 18076.773636,13091.341208 18090.116263,13113.386312 18112.276180,13082.471514 18103.383818,13073.659401 18112.257712,13064.828686 18112.230000,13038.353377 18076.671804,12994.261383 18107.677002,12936.873041 18125.433068,12936.854461 18138.756195,12950.078200 18138.783863,12976.553507 18178.801319,13042.689011 18223.175677,13042.642809 18236.481469,13029.391311 18236.444798,12994.094590"/>
    <poly id="600823446" type="water" color="181,209,209" fill="1" layer="-4.00" shape="17595.422277,11185.608265 17595.469854,11229.737390 17586.595228,11238.579437 17595.488887,11247.391255 17568.885731,11273.895253 17568.904794,11291.549118 17582.229741,11304.772382 17653.212991,11269.399247 17715.359638,11278.153997 17724.223981,11269.323100 17750.855688,11269.294624 17786.398816,11304.553387 17817.462647,11300.104058 17817.434470,11273.628796 17795.226499,11251.593394 17750.827389,11242.808294 17706.400773,11198.737716 17662.020426,11207.606725 17648.685971,11185.550930 17648.667009,11167.908135 17617.564105,11145.871473 17613.131933,11150.292484 17595.422277,11185.608265"/>
    <poly id="600823447" type="water" color="181,209,209" fill="1" layer="-4.00" shape="13298.526266,15823.650776 13303.013904,15854.525413 13296.364218,15861.153258 13287.492958,15861.165232 13276.377858,15845.739894 13285.219344,15823.668737 13291.875002,15821.457151 13298.526266,15823.650776"/>
    <poly id="600823448" type="water" color="181,209,209" fill="1" layer="-4.00" shape="13477.216941,16714.534778 13475.002921,16721.145551 13468.341716,16718.951867 13470.555718,16712.330025 13477.216941,16714.534778"/>
    <poly id="600823450" type="water" color="181,209,209" fill="1" layer="-4.00" shape="13651.449916,15944.498625 13655.879662,15940.076475 13678.068038,15940.047047 13691.367677,15926.802748 13700.238898,15926.790998 13709.121797,15935.600710 13722.438961,15935.583088 13751.243535,15911.283196 13751.226048,15898.045477 13742.337316,15884.819480 13748.981355,15873.786629 13780.041073,15873.745625 13802.195950,15856.073472 13815.530599,15869.282578 13828.837479,15869.265059 13831.040143,15853.821819 13846.549716,15838.361075 13859.850832,15833.938388 13877.574752,15811.855896 13895.310294,15798.594879 13913.058667,15802.987874 13935.229896,15789.721088 13979.607058,15789.663041 13986.246715,15783.035498 13986.235192,15774.214044 13999.540974,15765.375200 13997.309336,15758.759244 13990.647804,15756.565342 13990.636270,15747.732820 13995.076517,15743.321822 13983.967779,15732.301192 13975.086111,15732.312797 13970.644689,15727.913402 13948.461786,15732.347614 13944.020356,15727.948226 13904.089027,15728.000540 13890.783266,15736.839463 13886.341807,15732.429023 13846.404695,15728.076287 13835.324865,15739.114930 13839.777940,15752.346811 13828.692333,15758.980266 13822.035304,15752.370159 13822.023690,15743.548705 13804.253263,15730.334370 13804.224199,15708.275200 13797.556798,15701.665117 13784.249779,15701.682661 13775.385559,15714.932092 13762.066904,15706.128200 13748.765707,15710.550967 13744.313876,15706.151648 13735.442532,15706.163372 13733.228277,15712.785169 13737.680109,15717.184485 13722.170521,15732.645332 13691.116378,15737.102707 13664.515458,15754.780908 13660.063616,15750.381612 13651.192296,15750.393383 13628.968483,15723.947413 13620.091293,15719.554008 13606.796019,15728.393155 13593.478681,15728.410872 13566.819068,15701.970891 13560.167791,15699.777154 13549.046957,15679.935369 13537.961419,15686.569026 13531.323339,15702.018225 13522.457889,15706.446330 13513.576204,15706.458191 13495.809928,15688.838990 13482.486649,15684.440537 13455.885867,15702.119085 13429.302897,15733.035397 13420.425656,15728.642102 13409.340205,15735.275849 13413.811385,15761.734264 13427.140528,15770.537854 13416.061029,15781.587859 13407.189726,15781.599766 13400.522190,15774.989847 13400.498498,15757.346934 13396.056907,15752.936629 13400.468875,15735.287760 13396.021362,15726.472260 13402.671146,15719.844459 13415.984064,15724.231791 13431.493367,15708.770645 13429.261485,15702.154767 13411.518789,15702.178570 13402.641527,15697.785286 13387.120388,15704.425004 13391.561979,15708.824239 13389.341932,15711.029822 13384.900341,15706.630588 13380.470589,15711.041743 13362.717564,15711.065615 13353.834349,15702.256095 13349.404620,15706.678327 13327.204030,15697.886753 13318.314835,15684.660991 13300.561780,15684.684931 13223.022054,15766.407719 13218.604309,15779.640377 13194.231591,15808.351493 13187.586295,15810.574174 13178.728605,15828.229138 13156.580368,15850.318423 13134.439835,15885.634408 13125.564255,15890.062750 13103.434186,15925.378766 13085.699435,15938.640671 13019.265227,16026.968238 12997.107147,16049.057768 12988.260141,16066.712830 12970.525642,16079.974867 12921.804541,16146.208308 12873.075983,16199.215233 12873.082046,16203.620430 12844.275070,16232.338209 12835.404014,16232.350435 12828.754679,16238.978480 12833.196294,16243.388630 12833.208456,16252.210093 12815.478537,16261.056027 12819.920134,16265.455105 12822.154022,16280.892381 12839.924665,16294.105634 12853.241537,16294.087285 12871.007863,16311.705783 12884.330795,16316.103726 12893.213933,16324.912990 12915.407850,16329.298764 12922.083183,16349.135161 12928.750682,16355.744884 12946.509053,16360.136790 12975.378157,16384.359056 12975.390241,16393.180521 12984.283626,16401.989821 12979.855937,16415.233640 12984.307785,16419.632749 12984.325911,16432.870480 13004.323897,16457.104949 13019.868266,16468.107775 13019.898424,16490.166971 13042.116171,16512.195849 13033.246985,16521.029446 13037.694483,16529.844852 13028.835648,16538.678437 13037.754751,16573.963247 13024.472569,16591.624361 13035.593422,16611.454732 13042.248716,16609.243037 13046.672093,16600.415514 13046.660047,16591.594048 13042.218588,16587.183839 13055.518862,16582.760472 13051.077403,16578.350260 13051.059345,16565.123595 13070.990880,16540.834555 13086.541127,16556.242644 13086.553165,16565.075178 13097.655924,16571.667858 13104.305245,16565.050991 13099.839761,16542.997835 13106.478740,16536.369915 13124.236860,16540.762018 13141.976958,16531.905340 13155.265320,16518.660593 13173.023431,16523.041682 13179.680414,16529.651523 13179.692386,16538.472988 13184.133821,16542.883235 13184.169730,16569.347630 13179.746269,16578.175114 13144.288470,16604.698789 13144.336439,16639.984652 13133.263735,16655.440070 13115.528107,16659.880478 13108.884836,16670.913608 13117.773665,16684.139265 13117.791669,16697.365931 13126.680476,16710.591593 13108.956924,16723.853476 13108.974934,16737.080142 13084.602204,16756.969988 13075.721102,16756.982098 13066.838302,16748.172731 13055.753707,16754.806738 13066.862373,16765.815666 13093.484989,16765.779365 13133.377745,16739.260603 13146.694244,16739.242496 13168.841221,16717.153164 13191.034499,16721.528249 13195.463916,16717.117034 13204.345040,16717.104991 13211.001930,16723.714846 13206.578498,16732.542325 13219.936838,16763.404946 13246.589289,16785.417032 13237.732101,16803.083054 13244.399266,16809.681842 13253.264040,16805.264640 13259.931212,16811.874502 13259.967001,16838.338904 13255.537615,16842.761170 13255.561479,16860.404105 13251.138061,16869.231572 13264.456039,16878.035044 13268.903312,16886.850515 13268.992756,16953.017059 13260.140005,16966.266790 13255.734521,16988.331995 13251.305163,16992.743195 13251.329034,17010.386133 13260.211601,17019.206671 13255.782251,17023.617870 13255.806117,17041.260809 13264.688650,17050.070281 13264.724449,17076.545758 13260.295114,17080.956956 13260.307045,17089.778426 13271.427278,17109.620034 13291.376320,17098.557922 13289.148956,17087.536840 13302.454825,17087.518874 13309.121860,17094.128757 13298.043355,17105.167801 13293.602122,17100.768589 13291.388234,17107.379391 13300.264764,17111.783683 13300.282634,17125.021422 13309.175435,17133.830905 13309.211147,17160.295315 13315.861853,17162.488946 13320.301519,17158.077749 13326.958179,17164.687654 13329.213692,17188.946467 13335.868769,17186.723823 13335.856880,17177.902353 13340.286208,17173.491175 13335.821212,17151.437943 13342.454097,17140.404914 13349.115145,17142.598545 13349.138909,17160.241485 13344.715524,17169.068930 13355.823705,17180.078059 13362.449110,17155.807286 13373.523227,17149.184569 13386.851243,17157.988129 13409.037931,17157.958313 13413.479116,17162.357557 13424.569500,17160.140063 13424.557660,17151.318593 13417.890697,17144.708662 13409.020150,17144.720574 13404.590810,17149.142801 13393.494484,17146.944040 13397.894192,17120.473670 13402.323554,17116.062510 13380.119004,17102.854597 13371.183145,17054.342915 13360.074889,17043.333776 13355.645518,17047.744948 13353.419733,17045.545341 13355.603939,17016.864273 13391.096749,17016.816523 13402.175380,17005.777547 13402.163528,16996.956078 13395.496492,16990.346157 13377.755227,16990.370010 13360.015498,16999.215365 13342.240133,16981.596334 13333.369496,16981.608288 13326.696485,16970.593195 13346.650144,16955.125941 13368.826775,16955.096085 13373.268027,16959.495317 13386.584341,16959.477408 13399.908102,16972.697261 13413.224405,16972.679374 13422.083206,16963.845997 13435.405425,16968.233328 13444.270163,16963.816232 13450.913525,16952.772170 13448.675914,16941.751082 13426.488927,16941.780841 13422.065438,16950.608261 13419.838145,16939.587163 13406.504034,16926.367309 13395.383859,16906.536679 13364.320200,16902.162179 13348.776490,16891.159019 13353.205888,16886.736778 13353.158375,16851.450909 13362.033480,16847.022686 13370.880456,16829.367815 13370.868587,16820.546348 13361.985987,16811.736819 13361.956298,16789.677618 13348.616082,16772.052614 13366.350116,16758.790983 13366.338246,16749.969517 13359.671092,16743.359611 13346.364938,16743.377527 13330.815110,16727.958118 13330.797283,16714.731453 13337.436284,16708.103628 13355.188202,16708.079719 13379.561341,16688.190290 13386.204791,16677.157273 13403.950811,16672.717152 13415.054881,16688.142600 13408.415839,16694.770392 13395.099305,16694.788281 13384.014539,16701.422058 13406.219640,16714.629976 13408.457310,16725.651055 13419.553911,16727.838760 13424.018903,16749.892006 13410.726107,16767.552814 13426.269907,16778.567102 13452.886578,16774.115133 13455.130126,16789.552486 13461.797221,16796.162432 13468.436242,16789.534661 13468.412614,16771.891729 13455.082841,16754.266623 13479.461942,16738.793613 13497.213825,16738.769861 13510.496387,16721.098072 13577.058264,16721.009247 13581.499538,16725.419604 13590.370317,16725.407790 13599.229354,16716.574515 13610.337669,16727.583817 13619.248119,16749.631201 13625.904822,16756.241228 13634.785923,16756.229425 13641.425032,16749.601726 13641.407447,16736.363995 13650.276845,16727.530735 13636.925178,16701.084029 13628.042661,16692.274353 13623.583806,16674.637320 13603.582559,16654.807293 13563.647651,16650.444210 13556.980554,16643.845291 13556.968790,16635.023827 13563.618257,16628.396084 13585.811545,16632.771717 13590.241094,16628.360613 13616.863931,16628.325186 13621.293476,16623.903022 13630.164311,16623.891230 13652.328314,16606.218831 13656.769583,16610.618141 13674.521607,16610.594587 13683.386609,16606.177628 13687.827870,16610.576946 13690.024450,16590.728474 13681.147741,16586.323967 13698.889453,16586.300455 13694.430649,16568.663405 13678.886848,16557.659927 13661.134765,16557.683474 13643.416455,16575.349955 13607.928543,16579.813401 13585.711677,16557.783742 13559.088722,16557.819219 13552.409804,16542.387771 13516.874684,16511.554498 13512.409757,16489.501233 13530.116243,16463.013146 13507.903544,16436.567316 13507.891754,16427.745854 13527.853607,16425.516584 13534.503151,16418.888831 13534.485480,16405.651103 13545.560190,16399.028517 13563.341841,16421.052963 13576.658602,16421.035216 13589.976784,16429.850025 13601.097041,16449.680781 13594.441605,16451.892241 13589.994394,16443.076684 13581.123459,16443.088497 13567.794959,16434.284778 13556.721703,16449.739894 13572.271579,16465.159519 13590.029644,16469.552139 13603.347764,16478.355890 13609.997316,16471.728168 13612.205538,16460.690082 13621.076464,16460.678286 13634.381471,16451.839125 13647.717157,16473.880640 13665.469332,16473.857078 13681.013238,16484.871612 13674.369505,16495.904502 13661.052807,16495.922167 13641.108608,16511.389000 13647.775739,16517.999021 13669.963312,16517.969575 13678.840047,16522.363007 13696.568795,16504.696555 13723.186008,16500.256110 13740.939476,16509.054108 13760.889592,16497.992598 13756.419180,16471.534071 13760.848806,16467.111947 13749.762413,16464.923991 13745.322450,16469.346131 13729.772747,16453.926339 13729.743570,16431.867151 13749.686637,16407.578957 13767.422715,16403.139258 13774.089838,16409.749331 13760.790552,16423.004639 13765.259661,16440.641691 13771.916431,16447.251777 13780.797702,16447.240056 13794.121542,16460.449162 13805.206659,16453.826742 13805.189212,16440.589016 13816.274333,16433.955536 13827.382691,16444.964985 13827.400119,16458.202712 13818.530473,16467.035868 13820.762090,16473.651804 13838.520075,16478.044699 13842.949723,16473.622598 13851.820640,16473.610930 13865.119958,16460.355697 13873.996684,16464.760306 13898.428725,16488.990057 13902.887324,16506.627161 13898.463450,16515.454442 13902.904690,16519.864887 13905.147837,16535.302296 13920.668375,16528.663070 13918.436807,16522.047121 13911.785921,16519.853239 13913.989796,16513.231474 13925.092258,16519.835795 13927.329596,16530.856942 13931.759267,16526.445934 13936.200481,16530.845321 13945.071366,16530.833704 13953.935281,16517.595421 13962.811936,16521.989010 13971.682826,16521.977409 13976.112512,16517.566413 13980.564055,16521.965798 13982.773730,16519.760308 13976.100980,16508.744952 13962.794634,16508.762353 13953.912192,16499.952498 13931.724597,16499.981550 13920.616335,16488.960959 13920.604773,16480.139498 13913.937739,16473.529364 13891.738529,16464.737009 13885.081816,16458.126874 13880.628969,16444.894972 13860.621969,16420.659432 13838.438805,16416.283402 13829.563316,16420.700287 13802.916881,16403.092435 13785.180794,16407.532094 13760.743935,16387.707726 13762.958106,16381.085928 13767.399421,16385.496336 13780.704571,16376.657299 13798.452321,16381.039095 13802.876179,16372.211788 13820.616848,16363.366938 13829.493641,16367.771523 13836.143332,16361.143897 13831.702029,16356.733470 13833.911707,16354.527960 13847.240124,16363.331899 13864.998224,16367.724825 13871.626002,16352.275767 13860.517596,16341.255219 13847.211110,16341.272715 13833.905894,16350.111695 13822.813630,16343.518492 13811.693563,16323.676518 13793.947045,16328.116180 13789.505721,16323.705765 13771.753380,16323.729188 13758.464363,16336.984482 13749.593369,16336.996202 13731.811870,16314.960484 13714.059519,16314.983970 13709.618169,16310.573577 13691.887840,16319.418535 13678.559300,16310.614725 13665.270348,16323.870097 13656.389007,16323.881882 13643.094220,16332.721009 13625.341888,16332.744594 13618.685010,16326.134569 13625.318438,16315.101672 13643.076640,16319.483283 13651.930086,16306.244848 13658.585577,16304.022344 13654.144223,16299.623035 13654.132515,16290.801574 13671.845299,16268.718850 13669.618089,16257.697727 13660.736712,16257.709509 13645.186723,16242.289800 13649.603301,16220.224713 13640.698456,16202.582518 13640.663309,16176.118140 13622.891821,16154.082530 13640.610582,16136.416039 13627.286331,16123.195994 13622.827325,16105.558971 13640.546140,16087.892482 13640.540275,16083.476218 13633.883300,16076.866188 13620.566253,16076.883884 13598.360466,16063.686740 13545.130554,16076.984338 13531.806190,16063.775441 13518.499470,16063.793208 13516.267672,16057.177316 13536.206430,16037.294076 13562.818495,16028.437110 13578.321758,16008.559836 13578.304142,15995.333183 13591.597759,15977.661468 13591.580154,15964.434816 13576.047434,15962.241828 13569.380043,15955.631839 13569.368289,15946.810381 13580.453658,15940.176743 13598.213702,15953.390845 13609.299079,15946.757227 13604.857613,15942.357932 13607.077642,15940.141310 13620.384464,15940.123616 13651.449916,15944.498625"/>
    <poly id="600823460" type="water" color="181,209,209" fill="1" layer="-4.00" shape="13452.821547,16725.591538 13432.842336,16714.594241 13439.491718,16707.966445 13452.797902,16707.948607 13463.906324,16718.957808 13457.251019,16721.169327 13452.821547,16725.591538"/>
    <poly id="600823461" type="water" color="181,209,209" fill="1" layer="-4.00" shape="13271.302050,17016.978003 13269.070278,17010.362139 13289.029796,16999.311080 13293.453199,16990.483622 13295.686535,17005.920972 13286.821861,17010.338152 13286.827826,17014.754420 13271.302050,17016.978003"/>
    <poly id="600823462" type="water" color="181,209,209" fill="1" layer="-4.00" shape="13470.071366,16350.594680 13483.377848,16350.576870 13490.045111,16357.186826 13487.842851,16372.630124 13463.427735,16361.638725 13463.410006,16348.400998 13454.533115,16344.007685 13450.073961,16326.359636 13456.719092,16324.148130 13467.827775,16335.157332 13467.839602,16343.989862 13470.071366,16350.594680"/>
    <poly id="600823463" type="water" color="181,209,209" fill="1" layer="-4.00" shape="13476.709110,16335.145442 13483.342437,16324.112485 13492.223779,16324.100604 13498.880710,16330.710577 13492.247376,16341.743527 13481.150518,16339.555771 13476.709110,16335.145442"/>
    <poly id="758856153" type="building" color="255,230,230" fill="1" layer="-1.00" shape="19401.752169,14029.803218 19378.283227,14034.231099 19382.502962,14056.385734 19405.982213,14051.957848 19401.752169,14029.803218"/>
    <poly id="772105983" type="building" color="255,230,230" fill="1" layer="-1.00" shape="24081.569084,9028.498695 24085.617685,9019.298290 24082.565359,9017.972156 24083.949305,9014.805717 24096.055132,9020.054984 24090.622586,9032.432892 24081.569084,9028.498695"/>
    <poi id="7207956955" type="amenity" color="237,199,199" layer="4.00" x="24088.47" y="9024.53"/>
</additional>
