<?xml version="1.0" encoding="UTF-8"?>

<!-- generated on 2024-11-06 19:43:11.219254 by randomTrips.py v1_21_0+0000-d7b3b481c43
<configuration>
    <net-file value="bnt.net.xml"/>
    <route-file value="bnt.rou.xml"/>
    <length value="True"/>
    <end value="100.0"/>
</configuration>
-->

<!-- generated on 2024-11-06 19:43:11 by Eclipse SUMO duarouter Version 1.21.0
<duarouterConfiguration xmlns:xsi="http://www.w3.org/2001/XMLSchema-instance" xsi:noNamespaceSchemaLocation="http://sumo.dlr.de/xsd/duarouterConfiguration.xsd">

    <input>
        <net-file value="bnt.net.xml"/>
        <route-files value="trips.trips.xml"/>
    </input>

    <output>
        <output-file value="bnt.rou.xml"/>
        <alternatives-output value="NUL"/>
    </output>

    <time>
        <begin value="0"/>
        <end value="100.0"/>
    </time>

    <report>
        <no-warnings value="true"/>
        <ignore-errors value="true"/>
        <no-step-log value="true"/>
    </report>

</duarouterConfiguration>
-->

<routes xmlns:xsi="http://www.w3.org/2001/XMLSchema-instance" xsi:noNamespaceSchemaLocation="http://sumo.dlr.de/xsd/routes_file.xsd">
    <vehicle id="0" depart="0.00">
        <route edges="1045523999#0 -1045523999#0"/>
    </vehicle>
    <vehicle id="1" depart="1.00">
        <route edges="-1302461090#2 1302461090#2 1302455710#1 1302455710#2 1302455710#3 1302455709#0 1302455709#1 1302455709#2 602575478#0 602575478#1 602575478#2 602575478#3 602575478#4 602575478#5 602575478#6 602575478#7 602575478#8 602575478#9 602575478#10 624195803 -624195804 624028501#0 -624028501#0"/>
    </vehicle>
    <vehicle id="3" depart="3.00">
        <route edges="562457090#1 -624028501#0 624195804 -624195803 1152358105 -1152358105"/>
    </vehicle>
    <vehicle id="5" depart="5.00">
        <route edges="-1046148533#1 1046148533#1"/>
    </vehicle>
    <vehicle id="6" depart="6.00">
        <route edges="-1044778676 -1045523999#0 1302455708#1 1302455723#0 1302455709#2 602575478#0 602575478#1 602575478#2 602575478#3 602575478#4 602575478#5 602575478#6 602575478#7 -602581410#2"/>
    </vehicle>
    <vehicle id="7" depart="7.00">
        <route edges="1045523999#0 -1045523999#0 1302455708#1 1302455723#0 1302455709#2 602575478#0 602575478#1 602575478#2 602575478#3 602575478#4 602575478#5 602575478#6 602575478#7 602575478#8 602575478#9 602575478#10 1152358105"/>
    </vehicle>
    <vehicle id="8" depart="8.00">
        <route edges="-1152348703 -1152352184 1152352184 1152348703 602575478#1 602575478#2 1302455722 -1302455723#1 -1302455723#0 1302455708#2 1302461136#1 1302461136#2 -1046148533#0 1302455710#2"/>
    </vehicle>
    <vehicle id="10" depart="10.00">
        <route edges="1302461130 1302461137 1302461138 1302455710#0 1302455710#1 1302455710#2 1302455710#3 1302455709#0 1302455709#1 1302455709#2 602575478#0 602575478#1 602575478#2 602575478#3 602575478#4 602575478#5 602575478#6 602575478#7 602575478#8 602575478#9 602575478#10 624195803 -624195804 624028501#0 -562457090#1 562457090#1"/>
    </vehicle>
    <vehicle id="11" depart="11.00">
        <route edges="-562457090#2 -562457090#1"/>
    </vehicle>
    <vehicle id="12" depart="12.00">
        <route edges="602590535 1302455709#5 1044778680#1"/>
    </vehicle>
    <vehicle id="13" depart="13.00">
        <route edges="-1045523999#0 1302455708#1 1302455723#0 1302455709#2 602575478#0 602575478#1 602575478#2 602575478#3 602575478#4 602575478#5 602575478#6 602575478#7 602575478#8 602575478#9 602575478#10 1152358105 -1152358105"/>
    </vehicle>
    <vehicle id="14" depart="14.00">
        <route edges="1302461136#3 1302461139 1302455711#0 1302455711#1"/>
    </vehicle>
    <vehicle id="15" depart="15.00">
        <route edges="1302461130 1302461137 1302461138 1302455710#0 1302455710#1 1302455710#2 1302455710#3 1302455709#0 1302455709#1 1302455709#2 602575478#0 602575478#1 602575478#2 602575478#3 602575478#4 602575478#5 602575478#6 602575478#7 602575478#8 602575478#9 602575478#10 624195803 -624195804 624028501#0 562457090#2"/>
    </vehicle>
    <vehicle id="16" depart="16.00">
        <route edges="-624195802 624195802"/>
    </vehicle>
    <vehicle id="17" depart="17.00">
        <route edges="-562457090#2 -624028501#0 624195804 -624195803 1152358105"/>
    </vehicle>
    <vehicle id="18" depart="18.00">
        <route edges="1302461130 1302461137 1302461138 1302455710#0 -1302461090#2 -1302461090#1 -1302461090#0 1302455711#1"/>
    </vehicle>
    <vehicle id="19" depart="19.00">
        <route edges="1302461138 1302455710#0 1302455710#1 1302455710#2 1302455710#3 1302455709#0 1302455709#1 1302455709#2 1302455709#3 1302455709#4 1302455709#5"/>
    </vehicle>
    <vehicle id="22" depart="22.00">
        <route edges="-1045523999#0 1302455708#1 1302455723#0 1302455709#2 602575478#0 602575478#1 602575478#2 602575478#3 602575478#4 602575478#5 602575478#6 602575478#7 602575478#8 602575478#9 602575478#10 624195803 -624195804 624028501#0 -624028501#0"/>
    </vehicle>
    <vehicle id="23" depart="23.00">
        <route edges="-1045523999#0 1045523999#0 1044778676"/>
    </vehicle>
    <vehicle id="24" depart="24.00">
        <route edges="1045523999#0"/>
    </vehicle>
    <vehicle id="25" depart="25.00">
        <route edges="-562457090#2 -624028501#0"/>
    </vehicle>
    <vehicle id="26" depart="26.00">
        <route edges="-1302455723#1 -1302455723#0 1302455708#2 1302461136#1 1302461136#2 1302461136#3 1302461139 1302455711#0 1302461090#0 1302461090#1 624195800#0 624195800#1"/>
    </vehicle>
    <vehicle id="27" depart="27.00">
        <route edges="1045523999#0 -1045523999#0 1302455708#1 1302455708#2 1302461136#1 1302461136#2 1302461136#3 1302461139 1302455711#0 1302455711#1"/>
    </vehicle>
    <vehicle id="28" depart="28.00">
        <route edges="-1046148533#1 -1046148533#0 1302455710#2 1302455710#3 1302455709#0 1302455709#1 1302455709#2 602575478#0 602575478#1 602575478#2 602575478#3 602575478#4 602575478#5 602575478#6 602575478#7 602575478#8 602575478#9 602575478#10 624195803 -624195804 624028501#0 562457090#2"/>
    </vehicle>
    <vehicle id="32" depart="32.00">
        <route edges="1302461136#2 -1046148533#0 1302455710#2 1302455710#3 1302455709#0 1302455709#1 1302455709#2 602575478#0 602575478#1 602575478#2 602575478#3 602575478#4 602575478#5 602575478#6 602575478#7 602575478#8 602575478#9 602575478#10 624195803 -624195804 624028501#0 562457090#2"/>
    </vehicle>
    <vehicle id="35" depart="35.00">
        <route edges="-1046148533#1 1302461136#3 1302461139 1302455711#0 1302461090#0 1302461090#1 624195800#0 624195800#1"/>
    </vehicle>
    <vehicle id="36" depart="36.00">
        <route edges="562457090#0 562457090#1 -624028501#0 624195804 -624195803 -602575478#10 -602575478#9 -602575478#8 -602575478#7 -602575478#6 -602575478#5 -602575478#4 -602575478#3 -602575478#2 -602575478#1 -602575478#0 1302455709#3 1302455709#4 1302455709#5 1044778680#1"/>
    </vehicle>
    <vehicle id="38" depart="38.00">
        <route edges="602575478#1 602575478#2 1302455722 -1302455723#1 -1302455723#0 1302455708#2 1302461136#1 1302461136#2 1046148533#1"/>
    </vehicle>
    <vehicle id="41" depart="41.00">
        <route edges="-624195804 624028501#0 624028501#1"/>
    </vehicle>
    <vehicle id="42" depart="42.00">
        <route edges="-602575478#10 602575478#10 624195803 -624195804 624028501#0 -624028501#0"/>
    </vehicle>
    <vehicle id="43" depart="43.00">
        <route edges="624195803 -624195804 624028501#0 -624028501#0 624195804 -624195803 -602575478#10 -602575478#9 -602575478#8 -602575478#7 -602575478#6 -602575478#5 -602575478#4 -602575478#3 1302455722 -1302455723#1 -1302455723#0 1302455708#2 1302461136#1 1302461136#2 1046148533#1"/>
    </vehicle>
    <vehicle id="44" depart="44.00">
        <route edges="-1045523999#0"/>
    </vehicle>
    <vehicle id="45" depart="45.00">
        <route edges="-1045523999#0 1302455708#1 1302455708#2 1302461136#1 1302461136#2 1302461136#3 1302461139 1302455711#0 1302455711#1"/>
    </vehicle>
    <vehicle id="47" depart="47.00">
        <route edges="-1045523999#0 1045523999#0"/>
    </vehicle>
    <vehicle id="48" depart="48.00">
        <route edges="624195803 -624195804 624028501#0 -624028501#0 624195804 -624195803 1152358105 -1152358104#0 -1152358103 -1152358102 1152358102 1152358103 1152358104#0"/>
    </vehicle>
    <vehicle id="49" depart="49.00">
        <route edges="624028501#0"/>
    </vehicle>
    <vehicle id="50" depart="50.00">
        <route edges="-1044778676 -1045523999#0 1302455708#1 1302455723#0 1302455709#2 602575478#0 602575478#1 602575478#2 602575478#3 602575478#4 602575478#5 602575478#6 602575478#7 602575478#8 602575478#9 602575478#10 624195803 -624195804 624028501#0 562457090#2"/>
    </vehicle>
    <vehicle id="51" depart="51.00">
        <route edges="1152358105"/>
    </vehicle>
    <vehicle id="53" depart="53.00">
        <route edges="-1045523999#0 1045523999#0 1045523999#1"/>
    </vehicle>
    <vehicle id="54" depart="54.00">
        <route edges="-624028501#0 624195804 -624195803 -602575478#10 -602575478#9 624195802"/>
    </vehicle>
    <vehicle id="56" depart="56.00">
        <route edges="-624195800#1 -624195800#0 1302461090#2 1302455710#1 1302455710#2 1302455710#3 1302455709#0 1302455709#1 1302455709#2 602575478#0 602575478#1 602575478#2 602575478#3 602575478#4 602575478#5 602575478#6 602575478#7 602575478#8 602575478#9 602575478#10 -602575478#10"/>
    </vehicle>
    <vehicle id="57" depart="57.00">
        <route edges="602575478#0 602575478#1 602575478#2 602575478#3 602575478#4 602575478#5 602575478#6 602575478#7 602575478#8 602575478#9 602575478#10 624195803 -624195804 624028501#0"/>
    </vehicle>
    <vehicle id="59" depart="59.00">
        <route edges="1045523999#0 -1045523999#0 1302455708#1 1302455723#0 1302455709#2 602575478#0 602575478#1 602575478#2 602575478#3 602575478#4 602575478#5 602575478#6 602575478#7 602575478#8 602575478#9 602575478#10 624195803 -624195804 624028501#0 -562457090#1"/>
    </vehicle>
    <vehicle id="60" depart="60.00">
        <route edges="1302455717#0 1302455708#0 1302455708#1 1302455723#0 1302455709#2 602575478#0 602575478#1 602575478#2 602575478#3 602575478#4 602575478#5 602575478#6 602575478#7 602575478#8 602575478#9 602575478#10 1152358105"/>
    </vehicle>
    <vehicle id="61" depart="61.00">
        <route edges="1302455717#0 1302455708#0 1302455708#1 1302455723#0 1302455709#2 602575478#0 602575478#1 602575478#2 602575478#3 602575478#4 602575478#5 602575478#6 602575478#7 602575478#8 602575478#9 602575478#10 1152358105 -1152358104#0 -1152358103 -1152358102 1152358102 1152358103 1152358104#0"/>
    </vehicle>
    <vehicle id="62" depart="62.00">
        <route edges="-1044778676 -1045523999#0 1302455708#1 1302455723#0 1302455709#2 1302455709#3 1302455709#4 1302455709#5 1044778680#1"/>
    </vehicle>
    <vehicle id="63" depart="63.00">
        <route edges="-1044778676 -1045523999#0 1302455708#1 1302455708#2 1302461136#1 1302461136#2 1302461136#3 1302461139 1302455711#0 1302461090#0 1302461090#1 624195800#0 624195800#1"/>
    </vehicle>
    <vehicle id="64" depart="64.00">
        <route edges="562457090#0 562457090#1 -624028501#0 624195804 -624195803 -602575478#10 -602575478#9 602575478#9"/>
    </vehicle>
    <vehicle id="66" depart="66.00">
        <route edges="562457090#0 562457090#1 -624028501#0 624195804 -624195803 -602575478#10 -602575478#9 -602575478#8 -602575478#7 -602575478#6 -602575478#5 -602575478#4 -602575478#3 1302455722 -1302455723#1 -1302455723#0 1302455708#2 1302461136#1 1302461136#2 1302461136#3 1302461139 1302455711#0 1302461090#0 1302461090#1 624195800#0 624195800#1"/>
    </vehicle>
    <vehicle id="67" depart="67.00">
        <route edges="-1045523999#0 1302455708#1 1302455708#2 1302461136#1 1302461136#2 1046148533#1"/>
    </vehicle>
    <vehicle id="68" depart="68.00">
        <route edges="-1045523999#0 1302455708#1 1302455723#0 1302455709#2 602575478#0 602575478#1 602575478#2 602575478#3 602575478#4 602575478#5 602575478#6 602575478#7 602575478#8 602575478#9 602575478#10 624195803 -624195804 624028501#0 562457090#2"/>
    </vehicle>
    <vehicle id="69" depart="69.00">
        <route edges="1302455717#0 1302455708#0 1302455708#1 1302455723#0 1302455709#2 602575478#0 602575478#1 602575478#2 602575478#3 602575478#4 602575478#5 602575478#6 602575478#7 602575478#8 602575478#9 602575478#10 624195803 -624195804 624028501#0 -562457090#1 -562457090#0"/>
    </vehicle>
    <vehicle id="70" depart="70.00">
        <route edges="-624028501#1 -624028501#0 624195804 -624195803 1152358105"/>
    </vehicle>
    <vehicle id="71" depart="71.00">
        <route edges="-1302455722 602575478#3 602575478#4 602575478#5 602575478#6 602575478#7 602575478#8 602575478#9 602575478#10 624195803 -624195804 624028501#0"/>
    </vehicle>
    <vehicle id="72" depart="72.00">
        <route edges="-602581410#2 -602581408 602575478#7 602575478#8 602575478#9 602575478#10 624195803 -624195804 624028501#0 -624028501#0"/>
    </vehicle>
    <vehicle id="73" depart="73.00">
        <route edges="-624195802 602575478#9 602575478#10 624195803 -624195804 624028501#0 562457090#2"/>
    </vehicle>
    <vehicle id="74" depart="74.00">
        <route edges="-1046148533#1 -1046148533#0 1302455710#2 1302455710#3 1302455710#4 1302455712 1044778680#0 1044778680#1"/>
    </vehicle>
    <vehicle id="75" depart="75.00">
        <route edges="624195803 -624195804 624028501#0 -624028501#0 624195804 -624195803 -602575478#10 -602575478#9 -602575478#8 -602575478#7 -602575478#6 -602575478#5 -602575478#4 -602575478#3 1302455722 -1302455723#1 1302455723#1"/>
    </vehicle>
    <vehicle id="76" depart="76.00">
        <route edges="-624028501#0 624195804 -624195803 -602575478#10 1152352186"/>
    </vehicle>
    <vehicle id="77" depart="77.00">
        <route edges="-1045523999#1 -1045523999#0 1302455708#1 1302455723#0 1302455709#2 602575478#0 602575478#1 602575478#2 602575478#3 602575478#4 602575478#5 602575478#6 602575478#7 602575478#8 602575478#9 602575478#10 624195803 -624195804 624028501#0 -624028501#0"/>
    </vehicle>
    <vehicle id="78" depart="78.00">
        <route edges="-562457090#2 -624028501#0 624195804 -624195803 -602575478#10 -602575478#9 -602575478#8 -602575478#7 -602575478#6 -602575478#5 -602575478#4 -602575478#3 1302455722 -1302455723#1 -1302455723#0 1302455708#2 1302461136#1 1302461136#2 1302461136#3 1302461139 1302455711#0 1302461090#0 1302461090#1 1302461090#2 1302455710#1"/>
    </vehicle>
    <vehicle id="79" depart="79.00">
        <route edges="-1152352186 602575478#10 624195803 -624195804 624028501#0 -624028501#0"/>
    </vehicle>
    <vehicle id="80" depart="80.00">
        <route edges="-1045523999#0 1302455708#1 1302455708#2 1302461136#1 1302461136#2 1302461136#3 1302461139 1302455711#0 1302455711#1"/>
    </vehicle>
    <vehicle id="81" depart="81.00">
        <route edges="-1152352186 -602575478#9 -602575478#8 -602575478#7 -602575478#6 -602575478#5 -602575478#4 -602575478#3 1302455722 -1302455723#1 -1302455723#0 1302455708#2 1302461136#1 1302461136#2 1302461136#3 1302461139 1302455711#0 1302461090#0 1302461090#1 624195800#0 624195800#1"/>
    </vehicle>
    <vehicle id="82" depart="82.00">
        <route edges="1302461138 1302455710#0 1302455710#1 1302455710#2 1302455710#3 1302455709#0 1302455709#1 1302455709#2 602575478#0 602575478#1 602575478#2 602575478#3 602575478#4 602575478#5 602575478#6 602575478#7 602575478#8 602575478#9 602575478#10 1152358105 -1152358104#0 -1152358103 -1152358102"/>
    </vehicle>
    <vehicle id="83" depart="83.00">
        <route edges="-1152358104#0 -1152358103 -1152358102 1152358102 1152358103 1152358104#0 -1152358105 -602575478#10 -602575478#9 -602575478#8 -602575478#7 -602575478#6 -602575478#5 -602575478#4 -602575478#3 1302455722 -1302455723#1 -1302455723#0 1302455708#2 1302461136#1 1302461136#2 1302461136#3"/>
    </vehicle>
    <vehicle id="84" depart="84.00">
        <route edges="-1046148533#1 -1046148533#0 1302455710#2 1302455710#3 1302455709#0 1302455709#1 1302455709#2 602575478#0 602575478#1 602575478#2 602575478#3 602575478#4 602575478#5 602575478#6 602575478#7 602575478#8 602575478#9 602575478#10 624195803 -624195804 624028501#0 -562457090#1 -562457090#0"/>
    </vehicle>
    <vehicle id="85" depart="85.00">
        <route edges="602575478#7 -602581410#2 -602581410#1 -602581410#0 -1302455723#1 1302455709#2"/>
    </vehicle>
    <vehicle id="86" depart="86.00">
        <route edges="-624028501#1 562457090#2"/>
    </vehicle>
    <vehicle id="87" depart="87.00">
        <route edges="1302461130 1302461137 1302461138 1302455710#0 1302455710#1 1302455710#2 1302455710#3 1302455709#0 1302455709#1 1302455709#2 602575478#0 602575478#1 602575478#2 602575478#3 602575478#4 602575478#5 602575478#6 602575478#7 602575478#8 602575478#9 -602575478#9"/>
    </vehicle>
    <vehicle id="88" depart="88.00">
        <route edges="-1045523999#0 1045523999#0 1045523999#1"/>
    </vehicle>
    <vehicle id="89" depart="89.00">
        <route edges="-602581410#2 -602581410#1 -602581410#0 -1302455723#1 -1302455723#0 1302455708#2 1302461136#1 1302461136#2 1046148533#1"/>
    </vehicle>
    <vehicle id="90" depart="90.00">
        <route edges="1302455710#2 1302455707 1302461136#2 1302461136#3"/>
    </vehicle>
    <vehicle id="91" depart="91.00">
        <route edges="624028501#0 -624028501#0 624195804 -624195803 1152358105 -1152358105"/>
    </vehicle>
    <vehicle id="92" depart="92.00">
        <route edges="-602575478#10 -602575478#9 -602575478#8 -602575478#7 -602575478#6 -602575478#5 -602575478#4 -602575478#3 -602575478#2 -602575478#1 -602575478#0 1302455709#3 1302455709#4 1302455709#5 1044778680#1"/>
    </vehicle>
    <vehicle id="96" depart="96.00">
        <route edges="-1152358105 -602575478#10 -602575478#9 -602575478#8 -602575478#7 -602575478#6 -602575478#5 -602575478#4 -602575478#3 1302455722 -1302455723#1 -1302455723#0 1302455708#2 1302461136#1 1302461136#2 1302461136#3 1302461139 1302455711#0 1302461090#0 1302461090#1 624195800#0 624195800#1"/>
    </vehicle>
    <vehicle id="97" depart="97.00">
        <route edges="-624028501#0 624195804 -624195803 624195803 -624195804 624028501#0"/>
    </vehicle>
    <vehicle id="99" depart="99.00">
        <route edges="624195804 -624195803 -602575478#10 -602575478#9 -602575478#8 -602575478#7 -602575478#6 -602575478#5 -602575478#4 -602575478#3 1302455722 602581410#0"/>
    </vehicle>
</routes>
