<?xml version="1.0" encoding="UTF-8"?>

<!-- generated on 2024-11-06 19:41:59 by Eclipse SUMO netconvert Version 1.21.0
<netconvertConfiguration xmlns:xsi="http://www.w3.org/2001/XMLSchema-instance" xsi:noNamespaceSchemaLocation="http://sumo.dlr.de/xsd/netconvertConfiguration.xsd">

    <input>
        <osm-files value="bnt.osm"/>
    </input>

    <output>
        <output-file value="bnt.net.xml"/>
    </output>

    <projection>
        <proj.utm value="true"/>
    </projection>

</netconvertConfiguration>
-->

<net version="1.20" junctionCornerDetail="5" limitTurnSpeed="5.50" xmlns:xsi="http://www.w3.org/2001/XMLSchema-instance" xsi:noNamespaceSchemaLocation="http://sumo.dlr.de/xsd/net_file.xsd">

    <location netOffset="-465139.13,-2390336.47" convBoundary="0.00,0.00,36898.47,34555.93" origBoundary="86.662745,21.616107,87.019689,21.928102" projParameter="+proj=utm +zone=45 +ellps=WGS84 +datum=WGS84 +units=m +no_defs"/>

    <type id="highway.residential" priority="3" numLanes="1" speed="13.89" disallow="tram rail_urban rail rail_electric rail_fast ship container cable_car subway aircraft wheelchair scooter drone" oneway="0"/>
    <type id="highway.tertiary" priority="10" numLanes="1" speed="22.22" disallow="tram rail_urban rail rail_electric rail_fast ship container cable_car subway aircraft wheelchair scooter drone" oneway="0"/>
    <type id="highway.trunk" priority="13" numLanes="2" speed="27.78" disallow="pedestrian bicycle tram rail_urban rail rail_electric rail_fast ship container cable_car subway aircraft wheelchair scooter drone" oneway="0"/>
    <type id="highway.trunk_link" priority="8" numLanes="1" speed="22.22" disallow="pedestrian bicycle tram rail_urban rail rail_electric rail_fast ship container cable_car subway aircraft wheelchair scooter drone" oneway="0"/>
    <type id="highway.unclassified" priority="4" numLanes="1" speed="13.89" disallow="tram rail_urban rail rail_electric rail_fast ship container cable_car subway aircraft wheelchair scooter drone" oneway="0"/>
    <type id="railway.rail" priority="20" numLanes="1" speed="44.44" allow="rail" oneway="1"/>

    <edge id=":10718448753_0" function="internal">
        <lane id=":10718448753_0_0" index="0" disallow="tram rail_urban rail rail_electric rail_fast ship container cable_car subway aircraft wheelchair scooter drone" speed="13.89" length="0.31" shape="19111.78,14044.59 19111.73,14044.28"/>
    </edge>
    <edge id=":10718448753_1" function="internal">
        <lane id=":10718448753_1_0" index="0" disallow="tram rail_urban rail rail_electric rail_fast ship container cable_car subway aircraft wheelchair scooter drone" speed="13.89" length="0.25" shape="19114.88,14043.74 19114.92,14043.99"/>
    </edge>
    <edge id=":10718491114_0" function="internal">
        <lane id=":10718491114_0_0" index="0" disallow="tram rail_urban rail rail_electric rail_fast ship container cable_car subway aircraft wheelchair scooter drone" speed="22.22" length="9.40" shape="19430.69,14099.02 19428.99,14108.27"/>
    </edge>
    <edge id=":10718491114_1" function="internal">
        <lane id=":10718491114_1_0" index="0" disallow="tram rail_urban rail rail_electric rail_fast ship container cable_car subway aircraft wheelchair scooter drone" speed="6.05" length="7.85" shape="19430.69,14099.02 19429.99,14101.71 19429.03,14103.53 19427.82,14104.49 19426.35,14104.57"/>
    </edge>
    <edge id=":10718491114_2" function="internal">
        <lane id=":10718491114_2_0" index="0" disallow="tram rail_urban rail rail_electric rail_fast ship container cable_car subway aircraft wheelchair scooter drone" speed="6.17" length="7.81" shape="19427.04,14101.45 19428.31,14102.13 19429.06,14103.49 19429.29,14105.54 19428.99,14108.27"/>
    </edge>
    <edge id=":10718491114_3" function="internal">
        <lane id=":10718491114_3_0" index="0" disallow="tram rail_urban rail rail_electric rail_fast ship container cable_car subway aircraft wheelchair scooter drone" speed="3.65" length="4.67" shape="19427.04,14101.45 19428.04,14102.49 19428.26,14103.35 19427.69,14104.05 19426.35,14104.57"/>
    </edge>
    <edge id=":10718491124_0" function="internal">
        <lane id=":10718491124_0_0" index="0" disallow="tram rail_urban rail rail_electric rail_fast ship container cable_car subway aircraft wheelchair scooter drone" speed="3.65" length="4.67" shape="18440.40,13264.87 18441.83,13264.68 18442.66,13265.02 18442.88,13265.88 18442.51,13267.27"/>
    </edge>
    <edge id=":10718491125_0" function="internal">
        <lane id=":10718491125_0_0" index="0" disallow="tram rail_urban rail rail_electric rail_fast ship container cable_car subway aircraft wheelchair scooter drone" speed="7.67" length="10.45" shape="16185.95,13781.62 16184.33,13778.96 16182.44,13777.21 16180.28,13776.36 16177.84,13776.41"/>
    </edge>
    <edge id=":10718491125_1" function="internal">
        <lane id=":10718491125_1_0" index="0" disallow="tram rail_urban rail rail_electric rail_fast ship container cable_car subway aircraft wheelchair scooter drone" speed="7.62" length="15.25" shape="16185.95,13781.62 16184.66,13777.47 16185.16,13774.23 16187.46,13771.89 16191.56,13770.45"/>
    </edge>
    <edge id=":10718491125_2" function="internal">
        <lane id=":10718491125_2_0" index="0" disallow="tram rail_urban rail rail_electric rail_fast ship container cable_car subway aircraft wheelchair scooter drone" speed="3.65" length="4.67" shape="16185.95,13781.62 16186.16,13780.19 16186.71,13779.48 16187.60,13779.50 16188.84,13780.24"/>
    </edge>
    <edge id=":10718491125_3" function="internal">
        <lane id=":10718491125_3_0" index="0" disallow="tram rail_urban rail rail_electric rail_fast ship container cable_car subway aircraft wheelchair scooter drone" speed="6.03" length="9.07" shape="16192.18,13773.59 16189.74,13774.45 16188.37,13775.84 16188.07,13777.77 16188.84,13780.24"/>
    </edge>
    <edge id=":10718491125_4" function="internal">
        <lane id=":10718491125_4_0" index="0" disallow="tram rail_urban rail rail_electric rail_fast ship container cable_car subway aircraft wheelchair scooter drone" speed="22.22" length="14.61" shape="16192.18,13773.59 16177.84,13776.41"/>
    </edge>
    <edge id=":10718491125_5" function="internal">
        <lane id=":10718491125_5_0" index="0" disallow="tram rail_urban rail rail_electric rail_fast ship container cable_car subway aircraft wheelchair scooter drone" speed="3.65" length="1.44" shape="16192.18,13773.59 16190.84,13773.04"/>
    </edge>
    <edge id=":10718491125_9" function="internal">
        <lane id=":10718491125_9_0" index="0" disallow="tram rail_urban rail rail_electric rail_fast ship container cable_car subway aircraft wheelchair scooter drone" speed="3.65" length="3.23" shape="16190.84,13773.04 16190.30,13772.33 16190.54,13771.47 16191.56,13770.45"/>
    </edge>
    <edge id=":10718491125_6" function="internal">
        <lane id=":10718491125_6_0" index="0" disallow="tram rail_urban rail rail_electric rail_fast ship container cable_car subway aircraft wheelchair scooter drone" speed="22.22" length="14.61" shape="16177.23,13773.27 16191.56,13770.45"/>
    </edge>
    <edge id=":10718491125_7" function="internal">
        <lane id=":10718491125_7_0" index="0" disallow="tram rail_urban rail rail_electric rail_fast ship container cable_car subway aircraft wheelchair scooter drone" speed="9.00" length="3.73" shape="16177.23,13773.27 16180.79,13773.15 16180.95,13773.20"/>
    </edge>
    <edge id=":10718491125_8" function="internal">
        <lane id=":10718491125_8_0" index="0" disallow="tram rail_urban rail rail_electric rail_fast ship container cable_car subway aircraft wheelchair scooter drone" speed="3.65" length="1.44" shape="16177.23,13773.27 16178.56,13773.83"/>
    </edge>
    <edge id=":10718491125_10" function="internal">
        <lane id=":10718491125_10_0" index="0" disallow="tram rail_urban rail rail_electric rail_fast ship container cable_car subway aircraft wheelchair scooter drone" speed="9.00" length="10.98" shape="16180.95,13773.20 16183.92,13774.27 16186.60,13776.63 16188.84,13780.24"/>
    </edge>
    <edge id=":10718491125_11" function="internal">
        <lane id=":10718491125_11_0" index="0" disallow="tram rail_urban rail rail_electric rail_fast ship container cable_car subway aircraft wheelchair scooter drone" speed="3.65" length="3.23" shape="16178.56,13773.83 16179.10,13774.53 16178.87,13775.40 16177.84,13776.41"/>
    </edge>
    <edge id=":10718491163_0" function="internal">
        <lane id=":10718491163_0_0" index="0" disallow="tram rail_urban rail rail_electric rail_fast ship container cable_car subway aircraft wheelchair scooter drone" speed="3.65" length="4.67" shape="17200.15,15171.91 17199.66,15173.27 17198.98,15173.85 17198.11,15173.65 17197.05,15172.68"/>
    </edge>
    <edge id=":10718491164_0" function="internal">
        <lane id=":10718491164_0_0" index="0" disallow="tram rail_urban rail rail_electric rail_fast ship container cable_car subway aircraft wheelchair scooter drone" speed="3.65" length="4.67" shape="18631.58,20785.08 18630.17,20785.34 18629.32,20785.05 18629.05,20784.20 18629.35,20782.79"/>
    </edge>
    <edge id=":10718491191_0" function="internal">
        <lane id=":10718491191_0_0" index="0" disallow="tram rail_urban rail rail_electric rail_fast ship container cable_car subway aircraft wheelchair scooter drone" speed="3.65" length="4.67" shape="20538.12,18381.31 20539.49,18380.84 20540.36,18381.01 20540.76,18381.82 20540.66,18383.26"/>
    </edge>
    <edge id=":10718528370_0" function="internal">
        <lane id=":10718528370_0_0" index="0" disallow="tram rail_urban rail rail_electric rail_fast ship container cable_car subway aircraft wheelchair scooter drone" speed="3.65" length="4.67" shape="9401.98,16122.51 9400.54,16122.54 9399.76,16122.11 9399.63,16121.22 9400.17,16119.88"/>
    </edge>
    <edge id=":10718528402_0" function="internal">
        <lane id=":10718528402_0_0" index="0" disallow="tram rail_urban rail rail_electric rail_fast ship container cable_car subway aircraft wheelchair scooter drone" speed="9.11" length="1.91" shape="10956.58,15993.99 10956.76,15994.53 10956.85,15994.90 10956.87,15995.29 10956.84,15995.86"/>
    </edge>
    <edge id=":10718528402_1" function="internal">
        <lane id=":10718528402_1_0" index="0" disallow="tram rail_urban rail rail_electric rail_fast ship container cable_car subway aircraft wheelchair scooter drone" speed="13.89" length="0.64" shape="10953.65,15995.66 10953.65,15995.47 10953.65,15995.34 10953.62,15995.22 10953.56,15995.04"/>
    </edge>
    <edge id=":10718559005_0" function="internal">
        <lane id=":10718559005_0_0" index="0" disallow="tram rail_urban rail rail_electric rail_fast ship container cable_car subway aircraft wheelchair scooter drone" speed="7.06" length="3.09" shape="11009.23,16210.64 11008.39,16210.28 11007.86,16209.94 11007.43,16209.47 11006.93,16208.71"/>
    </edge>
    <edge id=":10718559005_1" function="internal">
        <lane id=":10718559005_1_0" index="0" disallow="tram rail_urban rail rail_electric rail_fast ship container cable_car subway aircraft wheelchair scooter drone" speed="4.42" length="1.03" shape="11009.66,16207.02 11009.82,16207.28 11009.96,16207.43 11010.14,16207.55 11010.42,16207.67"/>
    </edge>
    <edge id=":10718559022_0" function="internal">
        <lane id=":10718559022_0_0" index="0" disallow="tram rail_urban rail rail_electric rail_fast ship container cable_car subway aircraft wheelchair scooter drone" speed="13.89" length="14.42" shape="11735.97,17145.68 11724.75,17154.74"/>
    </edge>
    <edge id=":10718559022_1" function="internal">
        <lane id=":10718559022_1_0" index="0" disallow="tram rail_urban rail rail_electric rail_fast ship container cable_car subway aircraft wheelchair scooter drone" speed="7.94" length="4.10" shape="11735.97,17145.68 11732.58,17147.71 11732.43,17147.73"/>
    </edge>
    <edge id=":10718559022_2" function="internal">
        <lane id=":10718559022_2_0" index="0" disallow="tram rail_urban rail rail_electric rail_fast ship container cable_car subway aircraft wheelchair scooter drone" speed="3.65" length="1.44" shape="11735.97,17145.68 11734.54,17145.82"/>
    </edge>
    <edge id=":10718559022_9" function="internal">
        <lane id=":10718559022_9_0" index="0" disallow="tram rail_urban rail rail_electric rail_fast ship container cable_car subway aircraft wheelchair scooter drone" speed="7.94" length="10.23" shape="11732.43,17147.73 11729.39,17148.12 11726.40,17146.94 11723.60,17144.15"/>
    </edge>
    <edge id=":10718559022_10" function="internal">
        <lane id=":10718559022_10_0" index="0" disallow="tram rail_urban rail rail_electric rail_fast ship container cable_car subway aircraft wheelchair scooter drone" speed="3.65" length="3.23" shape="11734.54,17145.82 11733.72,17145.45 11733.53,17144.57 11733.96,17143.20"/>
    </edge>
    <edge id=":10718559022_3" function="internal">
        <lane id=":10718559022_3_0" index="0" disallow="tram rail_urban rail rail_electric rail_fast ship container cable_car subway aircraft wheelchair scooter drone" speed="6.43" length="9.03" shape="11726.16,17142.23 11727.92,17143.99 11729.81,17144.73 11731.82,17144.47 11733.96,17143.20"/>
    </edge>
    <edge id=":10718559022_4" function="internal">
        <lane id=":10718559022_4_0" index="0" disallow="tram rail_urban rail rail_electric rail_fast ship container cable_car subway aircraft wheelchair scooter drone" speed="8.11" length="14.25" shape="11726.16,17142.23 11728.07,17145.67 11728.47,17148.90 11727.36,17151.92 11724.75,17154.74"/>
    </edge>
    <edge id=":10718559022_5" function="internal">
        <lane id=":10718559022_5_0" index="0" disallow="tram rail_urban rail rail_electric rail_fast ship container cable_car subway aircraft wheelchair scooter drone" speed="3.65" length="4.67" shape="11726.16,17142.23 11726.24,17143.67 11725.84,17144.47 11724.96,17144.63 11723.60,17144.15"/>
    </edge>
    <edge id=":10718559022_6" function="internal">
        <lane id=":10718559022_6_0" index="0" disallow="tram rail_urban rail rail_electric rail_fast ship container cable_car subway aircraft wheelchair scooter drone" speed="6.64" length="9.21" shape="11722.75,17152.24 11724.42,17150.43 11725.12,17148.48 11724.85,17146.39 11723.60,17144.15"/>
    </edge>
    <edge id=":10718559022_7" function="internal">
        <lane id=":10718559022_7_0" index="0" disallow="tram rail_urban rail rail_electric rail_fast ship container cable_car subway aircraft wheelchair scooter drone" speed="13.89" length="14.41" shape="11722.75,17152.24 11733.96,17143.20"/>
    </edge>
    <edge id=":10718559022_8" function="internal">
        <lane id=":10718559022_8_0" index="0" disallow="tram rail_urban rail rail_electric rail_fast ship container cable_car subway aircraft wheelchair scooter drone" speed="3.65" length="1.44" shape="11722.75,17152.24 11724.18,17152.11"/>
    </edge>
    <edge id=":10718559022_11" function="internal">
        <lane id=":10718559022_11_0" index="0" disallow="tram rail_urban rail rail_electric rail_fast ship container cable_car subway aircraft wheelchair scooter drone" speed="3.65" length="3.23" shape="11724.18,17152.11 11725.00,17152.49 11725.19,17153.36 11724.75,17154.74"/>
    </edge>
    <edge id=":10718559023_0" function="internal">
        <lane id=":10718559023_0_0" index="0" disallow="tram rail_urban rail rail_electric rail_fast ship container cable_car subway aircraft wheelchair scooter drone" speed="3.65" length="4.67" shape="11674.14,17195.46 11672.71,17195.59 11671.89,17195.22 11671.70,17194.35 11672.14,17192.97"/>
    </edge>
    <edge id=":11564466332_0" function="internal">
        <lane id=":11564466332_0_0" index="0" disallow="tram rail_urban rail rail_electric rail_fast ship container cable_car subway aircraft wheelchair scooter drone" speed="3.65" length="4.67" shape="10656.27,9826.97 10655.81,9828.34 10655.14,9828.94 10654.26,9828.76 10653.18,9827.81"/>
    </edge>
    <edge id=":11564466339_0" function="internal">
        <lane id=":11564466339_0_0" index="0" disallow="tram rail_urban rail rail_electric rail_fast ship container cable_car subway aircraft wheelchair scooter drone" speed="5.84" length="9.13" shape="10469.85,9404.70 10468.26,9402.57 10466.54,9401.74 10464.70,9402.23 10462.74,9404.03"/>
    </edge>
    <edge id=":11564466339_1" function="internal">
        <lane id=":11564466339_1_0" index="0" disallow="tram rail_urban rail rail_electric rail_fast ship container cable_car subway aircraft wheelchair scooter drone" speed="9.69" length="15.12" shape="10469.85,9404.70 10468.07,9400.59 10467.47,9396.85 10468.02,9393.49 10469.75,9390.50"/>
    </edge>
    <edge id=":11564466339_2" function="internal">
        <lane id=":11564466339_2_0" index="0" disallow="tram rail_urban rail rail_electric rail_fast ship container cable_car subway aircraft wheelchair scooter drone" speed="3.65" length="4.67" shape="10469.85,9404.70 10469.97,9403.26 10470.48,9402.53 10471.37,9402.50 10472.65,9403.16"/>
    </edge>
    <edge id=":11564466339_3" function="internal">
        <lane id=":11564466339_3_0" index="0" disallow="tram rail_urban rail rail_electric rail_fast ship container cable_car subway aircraft wheelchair scooter drone" speed="8.45" length="11.30" shape="10472.22,9392.54 10471.03,9394.67 10470.71,9397.15 10471.25,9399.99 10472.65,9403.16"/>
    </edge>
    <edge id=":11564466339_4" function="internal">
        <lane id=":11564466339_4_0" index="0" disallow="tram rail_urban rail rail_electric rail_fast ship container cable_car subway aircraft wheelchair scooter drone" speed="22.22" length="14.89" shape="10472.22,9392.54 10462.74,9404.03"/>
    </edge>
    <edge id=":11564466339_5" function="internal">
        <lane id=":11564466339_5_0" index="0" disallow="tram rail_urban rail rail_electric rail_fast ship container cable_car subway aircraft wheelchair scooter drone" speed="3.65" length="1.44" shape="10472.22,9392.54 10470.83,9392.95"/>
    </edge>
    <edge id=":11564466339_9" function="internal">
        <lane id=":11564466339_9_0" index="0" disallow="tram rail_urban rail rail_electric rail_fast ship container cable_car subway aircraft wheelchair scooter drone" speed="3.65" length="3.23" shape="10470.83,9392.95 10469.96,9392.75 10469.60,9391.94 10469.75,9390.50"/>
    </edge>
    <edge id=":11564466339_6" function="internal">
        <lane id=":11564466339_6_0" index="0" disallow="tram rail_urban rail rail_electric rail_fast ship container cable_car subway aircraft wheelchair scooter drone" speed="22.22" length="14.89" shape="10460.27,9401.99 10469.75,9390.50"/>
    </edge>
    <edge id=":11564466339_7" function="internal">
        <lane id=":11564466339_7_0" index="0" disallow="tram rail_urban rail rail_electric rail_fast ship container cable_car subway aircraft wheelchair scooter drone" speed="7.50" length="4.64" shape="10460.27,9401.99 10463.69,9398.86"/>
    </edge>
    <edge id=":11564466339_8" function="internal">
        <lane id=":11564466339_8_0" index="0" disallow="tram rail_urban rail rail_electric rail_fast ship container cable_car subway aircraft wheelchair scooter drone" speed="3.65" length="1.44" shape="10460.27,9401.99 10461.65,9401.58"/>
    </edge>
    <edge id=":11564466339_10" function="internal">
        <lane id=":11564466339_10_0" index="0" disallow="tram rail_urban rail rail_electric rail_fast ship container cable_car subway aircraft wheelchair scooter drone" speed="7.50" length="11.27" shape="10463.69,9398.86 10466.90,9398.01 10469.88,9399.44 10472.65,9403.16"/>
    </edge>
    <edge id=":11564466339_11" function="internal">
        <lane id=":11564466339_11_0" index="0" disallow="tram rail_urban rail rail_electric rail_fast ship container cable_car subway aircraft wheelchair scooter drone" speed="3.65" length="3.23" shape="10461.65,9401.58 10462.53,9401.78 10462.89,9402.60 10462.74,9404.03"/>
    </edge>
    <edge id=":12062808112_0" function="internal">
        <lane id=":12062808112_0_0" index="0" disallow="tram rail_urban rail rail_electric rail_fast ship container cable_car subway aircraft wheelchair scooter drone" speed="13.89" length="18.55" shape="20384.45,11818.77 20380.14,11819.34 20375.11,11819.48 20370.19,11818.98 20366.18,11817.65"/>
    </edge>
    <edge id=":12062808112_1" function="internal">
        <lane id=":12062808112_1_0" index="0" disallow="pedestrian bicycle tram rail_urban rail rail_electric rail_fast ship container cable_car subway aircraft wheelchair scooter drone" speed="6.53" length="14.47" shape="20384.45,11818.77 20380.17,11819.05 20378.08,11817.79 20378.17,11814.97 20380.46,11810.61"/>
    </edge>
    <edge id=":12062808112_2" function="internal">
        <lane id=":12062808112_2_0" index="0" disallow="tram rail_urban rail rail_electric rail_fast ship container cable_car subway aircraft wheelchair scooter drone" speed="3.65" length="4.67" shape="20384.45,11818.77 20383.11,11818.22 20382.57,11817.51 20382.81,11816.65 20383.83,11815.63"/>
    </edge>
    <edge id=":12062808112_3" function="internal">
        <lane id=":12062808112_3_0" index="0" disallow="pedestrian bicycle tram rail_urban rail rail_electric rail_fast ship container cable_car subway aircraft wheelchair scooter drone" speed="7.85" length="12.81" shape="20367.72,11814.85 20370.04,11815.40 20372.48,11814.59 20375.07,11812.41 20377.79,11808.85"/>
    </edge>
    <edge id=":12062808112_4" function="internal">
        <lane id=":12062808112_4_0" index="0" disallow="tram rail_urban rail rail_electric rail_fast ship container cable_car subway aircraft wheelchair scooter drone" speed="13.89" length="16.39" shape="20367.72,11814.85 20371.40,11816.13 20375.58,11816.51 20379.86,11816.26 20383.83,11815.63"/>
    </edge>
    <edge id=":12062808112_5" function="internal">
        <lane id=":12062808112_5_0" index="0" disallow="tram rail_urban rail rail_electric rail_fast ship container cable_car subway aircraft wheelchair scooter drone" speed="3.65" length="4.67" shape="20367.72,11814.85 20368.39,11816.13 20368.35,11817.02 20367.62,11817.53 20366.18,11817.65"/>
    </edge>
    <edge id=":12062808112_6" function="internal">
        <lane id=":12062808112_6_0" index="0" disallow="pedestrian bicycle tram rail_urban rail rail_electric rail_fast ship container cable_car subway aircraft wheelchair scooter drone" speed="6.13" length="8.38" shape="20367.30,11824.79 20368.41,11822.55 20368.59,11820.61 20367.85,11818.98 20366.18,11817.65"/>
    </edge>
    <edge id=":12062808112_7" function="internal">
        <lane id=":12062808112_7_0" index="0" disallow="pedestrian bicycle tram rail_urban rail rail_electric rail_fast ship container cable_car subway aircraft wheelchair scooter drone" speed="27.78" length="19.08" shape="20367.30,11824.79 20377.79,11808.85"/>
        <lane id=":12062808112_7_1" index="1" disallow="pedestrian bicycle tram rail_urban rail rail_electric rail_fast ship container cable_car subway aircraft wheelchair scooter drone" speed="27.78" length="19.08" shape="20369.97,11826.55 20380.46,11810.61"/>
    </edge>
    <edge id=":12062808112_9" function="internal">
        <lane id=":12062808112_9_0" index="0" disallow="pedestrian bicycle tram rail_urban rail rail_electric rail_fast ship container cable_car subway aircraft wheelchair scooter drone" speed="13.82" length="18.09" shape="20369.97,11826.55 20373.16,11822.34 20376.53,11819.12 20380.09,11816.88 20383.83,11815.63"/>
    </edge>
    <edge id=":12062808113_0" function="internal">
        <lane id=":12062808113_0_0" index="0" disallow="pedestrian bicycle tram rail_urban rail rail_electric rail_fast ship container cable_car subway aircraft wheelchair scooter drone" speed="6.75" length="9.35" shape="19729.72,12964.33 19727.17,12963.73 19725.02,12964.02 19723.28,12965.20 19721.95,12967.27"/>
    </edge>
    <edge id=":12062808113_1" function="internal">
        <lane id=":12062808113_1_0" index="0" disallow="pedestrian bicycle tram rail_urban rail rail_electric rail_fast ship container cable_car subway aircraft wheelchair scooter drone" speed="3.65" length="4.67" shape="19729.72,12964.33 19728.88,12963.15 19728.79,12962.27 19729.44,12961.66 19730.85,12961.33"/>
    </edge>
    <edge id=":12062808113_2" function="internal">
        <lane id=":12062808113_2_0" index="0" disallow="pedestrian bicycle tram rail_urban rail rail_electric rail_fast ship container cable_car subway aircraft wheelchair scooter drone" speed="6.38" length="9.04" shape="19727.85,12954.12 19727.16,12956.52 19727.43,12958.52 19728.66,12960.13 19730.85,12961.33"/>
    </edge>
    <edge id=":12062808113_3" function="internal">
        <lane id=":12062808113_3_0" index="0" disallow="pedestrian bicycle tram rail_urban rail rail_electric rail_fast ship container cable_car subway aircraft wheelchair scooter drone" speed="27.78" length="14.41" shape="19727.85,12954.12 19721.95,12967.27"/>
        <lane id=":12062808113_3_1" index="1" disallow="pedestrian bicycle tram rail_urban rail rail_electric rail_fast ship container cable_car subway aircraft wheelchair scooter drone" speed="27.78" length="14.41" shape="19724.93,12952.81 19719.03,12965.96"/>
    </edge>
    <edge id=":12062808114_0" function="internal">
        <lane id=":12062808114_0_0" index="0" disallow="pedestrian bicycle tram rail_urban rail rail_electric rail_fast ship container cable_car subway aircraft wheelchair scooter drone" speed="6.69" length="9.27" shape="19731.27,12961.49 19733.79,12962.07 19735.90,12961.76 19737.61,12960.56 19738.91,12958.47"/>
    </edge>
    <edge id=":12062808114_1" function="internal">
        <lane id=":12062808114_1_0" index="0" disallow="pedestrian bicycle tram rail_urban rail rail_electric rail_fast ship container cable_car subway aircraft wheelchair scooter drone" speed="3.65" length="4.67" shape="19731.27,12961.49 19732.11,12962.66 19732.20,12963.55 19731.54,12964.16 19730.14,12964.49"/>
    </edge>
    <edge id=":12062808114_2" function="internal">
        <lane id=":12062808114_2_0" index="0" disallow="pedestrian bicycle tram rail_urban rail rail_electric rail_fast ship container cable_car subway aircraft wheelchair scooter drone" speed="6.41" length="9.04" shape="19733.20,12971.70 19733.85,12969.30 19733.56,12967.29 19732.32,12965.69 19730.14,12964.49"/>
    </edge>
    <edge id=":12062808114_3" function="internal">
        <lane id=":12062808114_3_0" index="0" disallow="pedestrian bicycle tram rail_urban rail rail_electric rail_fast ship container cable_car subway aircraft wheelchair scooter drone" speed="27.78" length="14.41" shape="19733.20,12971.70 19738.91,12958.47"/>
        <lane id=":12062808114_3_1" index="1" disallow="pedestrian bicycle tram rail_urban rail rail_electric rail_fast ship container cable_car subway aircraft wheelchair scooter drone" speed="27.78" length="14.41" shape="19736.14,12972.97 19741.85,12959.74"/>
    </edge>
    <edge id=":12062808115_0" function="internal">
        <lane id=":12062808115_0_0" index="0" disallow="pedestrian bicycle tram rail_urban rail rail_electric rail_fast ship container cable_car subway aircraft wheelchair scooter drone" speed="27.78" length="22.27" shape="19692.26,13066.62 19701.08,13046.17"/>
        <lane id=":12062808115_0_1" index="1" disallow="pedestrian bicycle tram rail_urban rail rail_electric rail_fast ship container cable_car subway aircraft wheelchair scooter drone" speed="27.78" length="22.27" shape="19695.19,13067.89 19704.02,13047.44"/>
    </edge>
    <edge id=":12062808115_2" function="internal">
        <lane id=":12062808115_2_0" index="0" disallow="pedestrian bicycle tram rail_urban rail rail_electric rail_fast ship container cable_car subway aircraft wheelchair scooter drone" speed="25.00" length="22.26" shape="19699.10,13069.07 19699.69,13064.91 19700.41,13059.85 19701.70,13054.00 19704.02,13047.44"/>
    </edge>
    <edge id=":12062808127_0" function="internal">
        <lane id=":12062808127_0_0" index="0" disallow="pedestrian bicycle tram rail_urban rail rail_electric rail_fast ship container cable_car subway aircraft wheelchair scooter drone" speed="27.78" length="7.84" shape="19289.28,15017.08 19290.67,15009.28"/>
        <lane id=":12062808127_0_1" index="1" disallow="pedestrian bicycle tram rail_urban rail rail_electric rail_fast ship container cable_car subway aircraft wheelchair scooter drone" speed="27.78" length="7.84" shape="19292.43,15017.65 19293.80,15010.00"/>
    </edge>
    <edge id=":12062808127_2" function="internal">
        <lane id=":12062808127_2_0" index="0" disallow="pedestrian bicycle tram rail_urban rail rail_electric rail_fast ship container cable_car subway aircraft wheelchair scooter drone" speed="22.39" length="7.85" shape="19292.43,15017.65 19292.70,15015.32 19292.79,15013.68 19293.11,15012.13 19294.10,15010.07"/>
    </edge>
    <edge id=":12062808128_0" function="internal">
        <lane id=":12062808128_0_0" index="0" disallow="pedestrian bicycle tram rail_urban rail rail_electric rail_fast ship container cable_car subway aircraft wheelchair scooter drone" speed="27.78" length="19.33" shape="19280.82,14994.93 19277.19,15013.92"/>
        <lane id=":12062808128_0_1" index="1" disallow="pedestrian bicycle tram rail_urban rail rail_electric rail_fast ship container cable_car subway aircraft wheelchair scooter drone" speed="27.78" length="19.33" shape="19277.68,14994.33 19274.05,15013.32"/>
    </edge>
    <edge id=":12062808128_2" function="internal">