<?xml version="1.0" encoding="UTF-8"?>

<!-- generated on 2024-10-22 07:41:25 by Eclipse SUMO polyconvert Version 1.21.0
<polyconvertConfiguration xmlns:xsi="http://www.w3.org/2001/XMLSchema-instance" xsi:noNamespaceSchemaLocation="http://sumo.dlr.de/xsd/polyconvertConfiguration.xsd">

    <input>
        <net-file value="baripada.net.xml"/>
        <osm-files value="map.osm"/>
        <type-file value="typemap.xml"/>
    </input>

    <output>
        <output-file value="bpd.poly.xml"/>
    </output>

</polyconvertConfiguration>
-->

<additional xmlns:xsi="http://www.w3.org/2001/XMLSchema-instance" xsi:noNamespaceSchemaLocation="http://sumo.dlr.de/xsd/additional_file.xsd">
    <location netOffset="-469565.05,-2390336.47" convBoundary="-52348.16,-12639.70,32472.55,70724.89" origBoundary="86.196585,21.501852,87.019689,22.253096" projParameter="+proj=utm +zone=45 +ellps=WGS84 +datum=WGS84 +units=m +no_defs"/>

    <poly id="1086486815" type="university" color="237,199,199" fill="1" layer="-2.00" shape="6192.049810,34627.706564 6209.086970,34794.650282 6216.278176,34965.804093 6236.228673,34991.895500 6265.036747,35029.573308 6292.747846,35065.824991 6302.425926,35141.475197 6545.212495,35099.909852 6585.252096,35066.809753 6722.514083,35042.872618 6699.043073,34851.454272 6717.419522,34847.508468 6706.794757,34807.400724 6814.831325,34803.011081 6808.839186,34759.874641 6813.170269,34714.055280 6800.727957,34680.801649 6746.179234,34694.586031 6728.374097,34555.923212 6634.377314,34599.065606 6515.002600,34598.348819 6443.632054,34599.441831 6285.667596,34614.591204 6192.049810,34627.706564"/>
    <poly id="1086486826" type="building" color="255,230,230" fill="1" layer="-1.00" shape="6471.885755,34803.039073 6504.662775,34802.037631 6502.751192,34739.812878 6497.140018,34737.508018 6497.106453,34728.963114 6492.672394,34726.534723 6492.870993,34721.276841 6478.102185,34720.723599 6477.764649,34729.711808 6473.552732,34730.769694 6472.538172,34735.951331 6469.909318,34738.988102 6471.885755,34803.039073"/>
    <poly id="1106483689" type="leisure" color="207,245,201" fill="1" layer="-2.00" shape="6751.025376,34544.366935 6828.458333,34716.556133 6890.243917,34673.263483 6876.187867,34652.010546 6898.536136,34638.108387 6912.312559,34658.841535 6966.911192,34615.825510 6922.277327,34477.180125 6865.978632,34495.327704 6837.439415,34506.095643 6751.025376,34544.366935"/>
    <poly id="1106483691" type="water" color="181,209,209" fill="1" layer="-4.00" shape="6830.216123,34745.730322 7098.162041,34861.874570 7115.647189,34701.365331 7177.794268,34643.462743 7134.683680,34605.328384 7103.165409,34605.817509 7083.551300,34618.121470 7056.314689,34608.764403 7039.702328,34604.682477 7001.654715,34610.483301 6970.849939,34632.500041 6832.196846,34730.452714 6830.216123,34745.730322"/>
    <poly id="1106484825" type="college" color="237,199,199" fill="1" layer="-2.00" shape="6192.153490,34627.972052 6131.092535,34637.617796 6077.885438,34643.820436 6044.821330,34646.372803 5988.656558,34649.901696 5931.773265,34656.254392 5883.902705,34660.645252 5827.473269,34666.599150 5814.639036,34668.268310 5769.146207,34674.194357 5717.142608,34683.783330 5640.382634,34692.127240 5548.937303,34707.013988 5532.574360,34743.543947 5537.377381,34803.229372 5567.197091,34813.033593 5650.459893,34809.571469 5681.783810,34909.682279 5734.240487,34899.738278 5743.737802,34904.018090 5726.310264,34999.711199 5731.171546,35017.800784 5746.070150,35048.780717 5787.130587,35082.033274 5800.138958,35092.948820 5811.351621,35104.641970 5832.840261,35116.739771 5895.332049,35118.745873 5956.272707,35099.370076 5994.036265,35084.479838 6022.067543,35080.208407 6046.059137,35068.040263 6078.637679,35072.650019 6123.129736,35068.021409 6164.732171,35064.648102 6178.032131,35070.571570 6192.238104,35101.685797 6204.654709,35090.498581 6248.881094,35047.152766 6265.036747,35029.573308 6236.228673,34991.895500 6216.278176,34965.804093 6209.086970,34794.650282 6192.153490,34627.972052"/>
    <poly id="1106486033" type="tourism" color="207,245,201" fill="1" layer="-2.00" shape="5547.405288,34691.586764 5530.364777,34579.577164 5594.904276,34575.457949 5597.626226,34552.840534 5650.574098,34545.884024 5713.430178,34528.385992 5737.296734,34521.740820 5762.150446,34664.874421 5707.551670,34672.541530 5690.360506,34674.959187 5547.405288,34691.586764"/>
    <poly id="1106486035" type="college" color="237,199,199" fill="1" layer="-2.00" shape="6106.642687,34620.842122 6084.496960,34463.713157 6295.788298,34431.512314 6306.914682,34528.910054 6388.385462,34527.646137 6392.514220,34587.454549 6246.374639,34602.708128 6106.642687,34620.842122"/>
    <poly id="1106486254" type="water" color="181,209,209" fill="1" layer="-4.00" shape="7117.504617,34861.746472 7128.547497,34772.628067 7147.193644,34776.386106 7142.705559,34793.327647 7159.614124,34809.385458 7180.089070,34813.782827 7187.938451,34828.348641 7196.396505,34828.413712 7198.336318,34841.338981 7182.033787,34851.147535 7158.750703,34854.325205 7132.442645,34851.076508 7128.680058,34862.737270 7117.504617,34861.746472"/>
    <poly id="1106486702" type="water" color="181,209,209" fill="0" layer="-4.00" shape="4184.792322,47613.405568 4218.392590,47422.468694 4299.662289,46929.541221 4319.438163,46844.854553 4408.131151,46637.578142 4545.910670,46338.539117 4653.321869,46101.237229 4720.076776,46010.165220 4800.373355,45957.856365 4943.803554,45915.573606 5264.565200,45842.535770 5420.025612,45803.492381 5482.879070,45793.309148 5558.486189,45755.710913 5583.081052,45737.452982 5680.747066,45617.192484 5832.961269,45407.113214 5957.645109,45237.202352 6023.609403,45128.194901 6042.012379,45069.181190 6047.159113,45007.055554 6022.099613,44846.254723 5995.452404,44626.913960 5967.674564,44417.691847 5934.377868,44150.987493 5929.352112,44031.785262 5964.525824,43938.067231 6026.631475,43853.118299 6462.817001,43559.272786 6588.611122,43474.594793 6720.830712,43392.642138 6882.964551,43276.620771 6925.427222,43241.536108 6956.512513,43183.589494 6979.477851,43044.344395 7000.489978,42910.171716 7030.807277,42716.502160 7060.732298,42557.146216 7081.027846,42440.031633 7119.037463,42176.607232 7140.940931,42064.227805 7142.495172,42012.224860 7124.850442,41897.900387 7085.001904,41707.068867 7042.967539,41518.631549 6992.988034,41305.401268 6985.807229,41238.535019 6995.343814,41174.665711 7095.528613,40874.014144 7196.038822,40588.427322 7250.422527,40440.625106 7263.401971,40407.322614 7283.154109,40226.298990 7325.145279,39862.477320 7330.930500,39794.474144 7344.894168,39734.771582 7354.319340,39698.995013 7391.889609,39636.103488 7503.483234,39458.920365 7742.699440,39088.749773 7790.227652,38998.538652 7807.700670,38929.212907 7789.888210,38862.439189 7740.192205,38744.551990 7670.559973,38599.010987 7617.522147,38477.509558 7516.927863,38263.864388 7428.863735,38063.185153 7361.205494,37915.838503 7353.139216,37878.858920 7351.164310,37841.560531 7362.671026,37802.117301 7387.483671,37753.257432 7463.852710,37648.891005 7633.317295,37430.361622 7775.455892,37241.537146 7884.304081,37100.854543 7959.237034,36998.651074 7979.274554,36944.342164 7994.252960,36868.467736 7993.054203,36794.962803 7974.261098,36722.202291 7929.662504,36532.748948 7906.231837,36466.857661 7793.333080,36305.594193 7687.482359,36171.306661 7571.391328,36004.902470 7489.106790,35902.570517 7453.706178,35844.644521 7441.665813,35802.213916 7431.889673,35747.471749 7437.857177,35661.271899 7455.600781,35598.907797 7491.870743,35529.477244 7522.481011,35466.530098 7591.985668,35327.186782 7666.999041,35168.532263 7705.736665,35097.416280 7718.640064,35050.478019 7722.779568,34977.308711 7710.657770,34906.841326 7646.097689,34723.715744 7572.431485,34529.103324 7509.583685,34360.951664 7431.509982,34156.041470 7400.377122,34067.039964 7388.968060,34026.501275 7380.378435,33971.779645 7385.016795,33915.799098 7412.206547,33700.243327 7439.748099,33513.078039 7454.944114,33444.231622 7479.453539,33387.790673 7533.065297,33329.569934 7589.905786,33289.807104 7745.601351,33223.670195 7952.376734,33146.692604 8086.161958,33097.657887 8148.704509,33064.264549 8243.971095,32974.398106 8359.643342,32866.528495 8526.110576,32712.190112 8575.852710,32652.140971 8604.573695,32597.577713 8609.670043,32548.193884 8601.372225,32477.831450 8590.932545,32457.247251 8565.330344,32406.754597 8510.586967,32293.930958 8472.808072,32214.710270 8394.758320,32122.053018 8321.169594,32044.077894 8223.373010,31939.539268 8171.506524,31884.944416 8151.331463,31839.148956 8145.197123,31744.399746 8145.449674,31622.722872 8140.202330,31497.699974 8140.576539,31440.563630 8159.548794,31394.414369 8188.254457,31357.748294 8271.711780,31302.775820 8383.821678,31231.471064 8550.818950,31134.146681 8585.949755,31111.584872 8614.009574,31077.410903 8637.836068,31021.913734 8639.825664,30958.809293 8636.140785,30787.883013 8636.309871,30753.050114 8650.623101,30712.574985 8672.128841,30681.708560 8810.068769,30511.142186 9022.054362,30253.832630 9142.099331,30098.579065 9205.353278,30022.719283 9216.606918,29994.756232 9235.292290,29931.242260 9259.172294,29866.448507 9289.710182,29820.838734 9329.688138,29789.162801 9371.033299,29767.856356 9438.190290,29751.242123 9538.729146,29753.334272 9842.432297,29759.633969 9926.338957,29737.709346 9979.017949,29700.650440 10035.066432,29624.548757 10088.692165,29535.754810 10154.402002,29428.140233 10220.825492,29328.593979 10283.411336,29216.368388 10305.922455,29183.986616 10329.869534,29159.671996 10373.176313,29135.034101 10430.330666,29097.218435 10516.432028,29050.788567 10579.941952,29014.094467 10668.689515,28959.836703 10823.764184,28873.265969 10980.841292,28783.860785 11137.760307,28698.940109 11264.965132,28619.812445 11317.960042,28590.649537 11353.839175,28546.675582 11396.830068,28471.258692 11462.232413,28345.918427 11519.513942,28245.492206 11571.740486,28150.728201 11629.493845,28028.762591 11694.072943,27911.847458 11764.881491,27784.830842 11830.099494,27664.783181 11895.799090,27540.451752 11970.319052,27403.636208 12045.753290,27261.141864 12137.526132,27102.513414 12204.347091,26987.822717 12292.705848,26831.601008 12374.179734,26670.794239 12397.334874,26607.135398 12397.470378,26517.082286 12392.832928,26409.435755 12390.231153,26274.636013 12385.260160,26109.898821 12381.942904,25954.756126 12381.181567,25802.886818 12388.181272,25751.986158 12396.500339,25734.610331 12416.395406,25719.833547 12447.277177,25716.500202 12528.452923,25715.744517"/>
    <poly id="1106494319" type="building" color="255,230,230" fill="1" layer="-1.00" shape="6574.879215,34830.665798 6613.164876,34825.660522 6607.826920,34785.257110 6597.078416,34786.667922 6598.070723,34794.126662 6583.047591,34796.086276 6582.013368,34788.229131 6569.499253,34789.863992 6574.879215,34830.665798"/>
    <poly id="1106494320" type="building" color="255,230,230" fill="1" layer="-1.00" shape="6641.316097,34832.082277 6697.063690,34826.176568 6690.664398,34766.537506 6670.064858,34768.715699 6669.897298,34767.166348 6652.932369,34768.962779 6652.450613,34771.376456 6635.000395,34773.228979 6641.316097,34832.082277"/>
    <poly id="1106494323" type="building" color="255,230,230" fill="1" layer="-1.00" shape="6553.030155,34640.994085 6551.589756,34624.039172 6586.160350,34620.544766 6587.394466,34637.699227 6553.030155,34640.994085"/>
    <poly id="1106494324" type="building" color="255,230,230" fill="1" layer="-1.00" shape="6645.110264,34800.420399 6684.255630,34797.052156 6682.269708,34774.320242 6670.725383,34775.322659 6671.681610,34786.290201 6655.118897,34787.709695 6654.267724,34777.937405 6643.229369,34778.894808 6645.110264,34800.420399"/>
    <poly id="1106494956" type="water" color="181,209,209" fill="1" layer="-4.00" shape="1949.358070,35325.216716 1923.895922,35189.738114 1979.144621,35166.361422 2036.441620,35156.396440 2049.887413,35231.329150 2051.110921,35326.284803 1949.358070,35325.216716"/>
    <poly id="1106494957" type="water" color="181,209,209" fill="1" layer="-4.00" shape="1999.765545,35481.570299 2098.529164,35445.896161 2076.258130,35373.104375 2060.290219,35360.138391 1987.637382,35369.820948 1969.688735,35386.755008 1999.765545,35481.570299"/>
    <poly id="1106495599" type="college" color="237,199,199" fill="1" layer="-2.00" shape="1758.768499,35167.544717 1713.912434,35169.994674 1687.100844,35185.583681 1598.877499,35179.999417 1589.633321,35207.521821 1543.039514,35208.359407 1562.009712,35315.745990 1639.330361,35294.718705 1631.436536,35275.451483 1619.599431,35274.111570 1631.814860,35227.944186 1696.367883,35233.173088 1702.151043,35267.364696 1680.738004,35270.137508 1679.547268,35313.916147 1768.558213,35292.923619 1758.768499,35167.544717"/>
    <poly id="1128435236" type="water" color="181,209,209" fill="1" layer="-4.00" shape="2077.273238,36407.002569 2038.622550,36338.058807 2120.410555,36282.668689 2141.980873,36380.189208 2077.273238,36407.002569"/>
    <poly id="1128435239" type="leisure" color="207,245,201" fill="1" layer="-2.00" shape="2361.871470,36516.550926 2331.432024,36523.467499 2286.470367,36388.908321 2364.894089,36363.477215 2399.177294,36351.905073 2405.685092,36370.688114 2481.015712,36341.953538 2569.178765,36487.306552 2520.507827,36520.255117 2523.207766,36546.416643 2527.532493,36580.478321 2518.187853,36610.014887 2499.916052,36636.434783 2474.120974,36653.614597 2442.948679,36660.576528 2413.121689,36657.507941 2396.997487,36642.870529 2379.427315,36616.414376 2367.958419,36589.183688 2362.613329,36550.574642 2367.717304,36528.904243 2372.399070,36519.531865 2361.871470,36516.550926"/>
    <poly id="1128435241" type="tourism" color="207,245,201" fill="1" layer="-2.00" shape="2105.817387,36275.699408 2090.307183,36235.249117 2073.009512,36240.393810 2061.685961,36202.515043 2044.945935,36155.857490 2064.963680,36135.743081 2072.773227,36108.489147 2051.438661,36108.350279 2038.864131,36092.754963 2038.898426,36065.813813 2050.740321,36041.375144 2076.182523,36034.422720 2096.324431,36043.186233 2106.817845,36061.486067 2110.415337,36069.437988 2177.257404,36074.775400 2197.310613,36074.396497 2248.114631,36061.720925 2254.603154,36081.112712 2257.038395,36143.934014 2230.316376,36145.398380 2232.411018,36185.075749 2163.824510,36191.429716 2171.913974,36268.840470 2105.817387,36275.699408"/>
    <poly id="1128437590" type="water" color="181,209,209" fill="0" layer="-4.00" shape="4218.553932,34374.367271 4155.348543,34386.160418 4116.078552,34364.575395 4100.794071,34377.141523 4085.309170,34418.220738 4046.248255,34466.378853 4017.474064,34471.407674 4009.826159,34542.359158 3961.070159,34560.670551 3912.927786,34569.152140 3886.782429,34602.091846 3878.194679,34641.809356 3859.123965,34668.738067 3814.784200,34672.133087 3769.933103,34660.099442 3744.051738,34641.049659 3713.719713,34640.658041 3693.914409,34660.504278 3666.061154,34660.219254 3653.741784,34636.442548 3654.927124,34610.639601 3649.924450,34595.915730 3618.473880,34563.183688 3605.222577,34538.036090 3580.475391,34524.231175 3538.910467,34495.512206 3522.031460,34456.678958 3506.722519,34430.217771 3466.857079,34429.389011 3396.799978,34462.260434 3338.510845,34485.825472 3286.829480,34496.196681 3267.689090,34500.081366 3266.614845,34512.015178 3234.365142,34519.674648 3216.223277,34521.653879 3188.980780,34546.383721 3172.998065,34560.767211 3153.366219,34561.066648 3108.495308,34555.997063 3068.619293,34548.882351 3045.126515,34532.142916 3016.326820,34528.163748 2990.225100,34519.686100 2956.974551,34527.790615 2947.532091,34543.801150 2915.247122,34542.927427 2874.108031,34540.021473 2848.695106,34541.637441 2830.315216,34513.654770 2828.175636,34488.909059 2811.289491,34470.686332 2787.671605,34459.415392 2739.913317,34457.052629 2705.569326,34436.381164 2661.801596,34401.082501 2634.479168,34374.001221 2582.558360,34359.747463 2578.416297,34335.835452 2558.433514,34330.535517 2536.756264,34313.085243 2522.308063,34295.522646 2499.585953,34288.832964"/>
    <poly id="1128437591" type="water" color="181,209,209" fill="0" layer="-4.00" shape="2855.113516,35926.489019 2847.179367,35847.483831 2821.119983,35796.956646 2781.176898,35773.383738 2758.524847,35758.237140 2759.343497,35736.231258 2772.936786,35702.735950 2758.927204,35657.567184 2740.987609,35626.805599 2729.567180,35580.093793 2735.214162,35549.578757 2714.311402,35531.064296 2703.672358,35500.157155 2716.287734,35480.200460 2751.805155,35482.252449 2768.003128,35455.880796 2788.387321,35425.771724 2815.778576,35404.671395 2830.452345,35374.660889 2869.397069,35364.022519 2880.580670,35357.859968"/>
    <poly id="1128437592" type="water" color="181,209,209" fill="0" layer="-4.00" shape="4240.216535,35439.663458 4189.161507,35427.616770 4150.310014,35395.283344 4126.542872,35354.911268 4117.280321,35324.222302 4080.131686,35297.686175 4051.255411,35265.325327 4022.399412,35245.195323 3985.317137,35258.605957 3942.654359,35288.130857 3919.771687,35289.176390 3906.928322,35266.485083 3901.764521,35235.457318 3923.936819,35198.650234 3914.956387,35157.877400 3896.668085,35115.205292 3857.953427,35116.000728 3847.266614,35129.289938 3853.360129,35172.712979 3802.082170,35213.033552 3775.164543,35258.803313 3745.923911,35274.160461 3720.120442,35300.724382 3690.031777,35290.813397 3647.812061,35288.848115 3601.905672,35305.196695 3558.203948,35312.288299 3507.280236,35323.377004 3451.432673,35359.887829 3401.893020,35407.301754 3346.105333,35436.241916 3315.517778,35436.515633 3256.864630,35402.248079 3194.557120,35374.915986 3144.253886,35368.272853 3124.207128,35354.947571 3085.498486,35352.900255 3051.800214,35339.974975 3002.737913,35322.493956 2953.863584,35294.375808 2933.666197,35253.921815 2928.012998,35227.621498 2942.011822,35207.164504 2906.505839,35176.377901 2863.066923,35156.507782 2816.726627,35148.840470 2784.142606,35147.513736 2761.501754,35151.106304 2726.819604,35125.166720 2700.588041,35130.536637 2675.432713,35107.701841 2644.653483,35099.155483 2624.369143,35068.586318 2620.957568,35037.102055 2605.261072,34984.575769 2571.428558,34954.716734 2527.445722,34943.238506 2506.106563,34929.661697 2482.000241,34887.134265 2464.807049,34847.074035 2455.557248,34825.595091 2430.123332,34815.058420 2421.367723,34792.759544 2405.376086,34778.221513 2380.012097,34766.411906 2359.929769,34751.294527 2359.890650,34723.390584 2377.315441,34695.732420 2400.016593,34673.366813 2410.056311,34633.380238 2414.451156,34595.739135 2413.611788,34541.570763 2436.209511,34518.961888"/>
    <poly id="1128438265" type="amenity" color="237,199,199" fill="1" layer="-1.00" shape="2419.559764,35989.226957 2436.471267,36034.113600 2529.242739,36009.997286 2541.461011,35964.284402 2419.559764,35989.226957"/>
    <poly id="1130874638" type="building" color="255,230,230" fill="1" layer="-1.00" shape="6553.862593,34734.212525 6612.430582,34728.800358 6608.830452,34690.309204 6550.262321,34695.721383 6553.862593,34734.212525"/>
    <poly id="1130874639" type="building" color="255,230,230" fill="1" layer="-1.00" shape="6563.031100,34725.974742 6575.267280,34724.904794 6574.342914,34714.568119 6589.604583,34713.227980 6590.402896,34722.159133 6601.668437,34721.168146 6599.872158,34701.014940 6561.108744,34704.427087 6563.031100,34725.974742"/>
    <poly id="1130874640" type="building" color="255,230,230" fill="1" layer="-1.00" shape="6628.140401,34723.308859 6647.407700,34721.077269 6647.752869,34723.987791 6665.109948,34721.969394 6664.806656,34719.435141 6684.084275,34717.192512 6677.556831,34661.682238 6621.654655,34668.185944 6628.140401,34723.308859"/>
    <poly id="1130874641" type="building" color="255,230,230" fill="1" layer="-1.00" shape="6632.597377,34686.012073 6648.602075,34684.294542 6648.916213,34687.171904 6654.254554,34686.599392 6653.741425,34681.873874 6670.943891,34680.021744 6669.959399,34670.869495 6631.403524,34675.000616 6632.597377,34686.012073"/>
    <poly id="1130874642" type="building" color="255,230,230" fill="1" layer="-1.00" shape="6634.286765,34717.532888 6647.255474,34715.985945 6645.896032,34704.731227 6662.612876,34702.735926 6663.689951,34711.644527 6674.449037,34710.366569 6671.981114,34689.904442 6631.526136,34694.746802 6634.286765,34717.532888"/>
    <poly id="1130874643" type="building" color="255,230,230" fill="1" layer="-1.00" shape="6647.486757,34821.878835 6686.702719,34817.414701 6685.681985,34804.742691 6668.738563,34807.081435 6668.062830,34804.104997 6662.858931,34804.776920 6663.421564,34808.085586 6645.578687,34809.761589 6647.486757,34821.878835"/>
    <poly id="1148052506" type="building" color="255,230,230" fill="1" layer="-1.00" shape="6568.297086,34841.910337 6560.236755,34783.679535 6615.703128,34776.091540 6623.763258,34834.322367 6568.297086,34841.910337"/>
    <poly id="1150124893" type="building" color="255,230,230" fill="1" layer="-1.00" shape="3424.235457,33405.139291 3391.720366,33409.954224 3388.262409,33386.893153 3420.777527,33382.067145 3424.235457,33405.139291"/>
    <poly id="1150124915" type="building" color="255,230,230" fill="1" layer="-1.00" shape="3201.360175,35547.718808 3223.043056,35539.800673 3217.917843,35525.951554 3196.245252,35533.858610 3201.360175,35547.718808"/>
    <poly id="1156775461" type="residential" color="235,235,227" fill="1" layer="-3.00" shape="3899.062923,37037.025651 3799.140658,36945.091317 3606.854151,37012.713444 3476.575024,36880.099997 3300.461686,37027.414711 3321.908795,37069.881565 3491.184775,37085.531329 3555.471162,37175.753246 3614.489225,37313.811984 3538.025408,37397.189081 3716.515224,37600.560940 3350.990671,38447.779920 3242.310958,38435.569487 3221.288997,38639.269123 3171.553886,38722.591176 3102.057949,38710.314224 3023.600655,38662.633359 3044.268464,38249.946542 2899.792293,38143.927116 2734.012585,38078.690045 2699.962084,37961.853529 2657.155922,37933.592850 2596.361030,37804.406640 2637.166669,37710.461562 2749.370717,37697.867926 2849.004205,37623.312505 2847.113975,37557.778270 2734.917139,37580.997098 2647.495675,37506.768986 2508.730678,37611.512514 2448.077456,37563.791989 2435.401582,37443.376307 2333.803297,37416.991619 2264.282874,37388.768386 2267.624500,37264.782366 2037.849735,37282.902872 2028.646281,37119.977622 2151.513522,37086.097773 2224.686231,37163.901602 2283.464815,37154.942009 2258.366632,37069.968308 2114.002042,37029.493319 1949.894134,36914.651633 1891.026147,36868.712065 1837.355479,36744.817832 1838.913948,36624.365890 1804.799373,36477.413669 1807.980749,36266.627547 1793.094027,36097.470136 1759.205206,36098.804369 1744.025818,35916.664032 1728.874825,35869.992863 1694.577661,35623.833024 1551.648344,35404.446853 1467.807753,35349.688422 1451.293675,35089.317743 1479.411572,34873.151134 1459.357027,34625.172853 1505.510762,34529.433376 1394.723755,34357.795498 1394.496510,34233.794030 1445.770060,34017.574092 1564.999743,33935.858156 1864.273625,33892.801258 1953.100977,33742.063863 2193.638548,33736.309460 2232.637511,33626.406137 2364.476820,33610.233314 2419.845490,33686.309569 2469.852245,33749.998627 2493.426832,33982.032741 2565.000741,34153.747022 2606.042976,34189.105549 2645.198940,34167.774019 2652.192467,34086.274586 2650.256692,34001.237791 2610.990449,33965.876034 2596.591920,33882.643184 2630.396726,33854.237120 2665.699727,33661.072188 2615.637528,33565.493951 2489.041349,33521.431108 2453.118787,33356.727118 2404.891260,33289.493023 2376.146249,33160.218231 2359.858608,33020.284509 2297.398473,32965.472795 2316.844698,32876.856237 2546.827038,32940.227387 2637.840329,33016.252781 2750.003440,32961.134129 2823.029521,32939.744007 2894.342840,32960.882768 2862.533937,33116.839330 2937.478371,33171.631590 2900.297978,33315.200590 2912.823618,33343.525542 3000.134738,33341.603230 3001.688515,33206.950959 3081.817729,33178.465818 3113.793498,33118.175348 3051.243458,33015.533423 3106.376899,32949.890047 3218.739731,33009.932104 3282.949884,33045.252607 3263.644235,33218.907757 3318.986900,33275.506387 3361.715354,33257.712531 3400.610070,33075.169213 3159.723957,32884.238877 3148.856021,32786.820701 3041.835401,32723.216881 2820.835464,32705.890420 2694.429313,32768.117344 2612.420699,32750.540186 2546.365897,32678.024049 2492.589840,32499.172635 2588.806824,32490.148525 2662.013806,32576.831181 2760.025473,32578.430816 2861.452643,32494.985085 3007.702645,32563.832733 3230.641940,32675.064453 3458.788318,32710.105286 3572.905287,32750.655064 3687.078459,32824.876225 3884.987570,32895.415824 3974.161932,32937.781227 3953.011477,33081.320856 3885.346513,33109.780690 3759.106474,33271.217778 3823.400594,33357.920746 3740.088289,33618.482869 3627.872577,33641.706011 3652.988188,33744.413413 3670.993598,33850.674822 3807.994853,33735.297379 3875.517476,33623.568304 4053.691055,33614.415890 4076.962735,33678.154453 4217.714752,33667.284102 4208.046969,34290.894149 4102.999624,34337.124836 3918.004646,34523.441341 3948.425133,34601.335631 4012.556329,34594.144642 4092.949758,34721.554405 4137.588206,34779.944667 4232.078760,34815.207669 4256.873399,35801.845540 4232.224981,35977.246556 3925.677696,36978.527547 3899.062923,37037.025651"/>
    <poly id="1156787782" type="leisure" color="207,245,201" fill="1" layer="-2.00" shape="1779.424675,34306.555788 1871.206906,34341.577250 1921.316405,34313.029563 1910.794571,34279.687656 1918.174924,34277.538128 1888.773916,34186.706570 1873.672447,34173.883105 1836.443203,34180.679970 1813.343296,34170.925939 1765.517322,34274.448715 1779.424675,34306.555788"/>
    <poly id="1156787783" type="leisure" color="207,245,201" fill="1" layer="-2.00" shape="1824.166588,34210.919481 1809.010529,34219.347940 1797.301391,34232.098017 1790.214159,34247.861483 1788.489526,34265.043111 1792.289555,34281.893763 1801.228988,34296.687432 1814.406642,34307.942558 1830.477840,34314.499374 1848.986743,34315.561768 1866.782137,34310.393833 1881.809921,34299.585905 1892.316653,34284.380820 1897.076562,34266.562826 1895.545976,34248.191661 1887.914598,34231.392163 1875.043111,34218.110866 1858.442154,34209.905735 1841.221941,34207.656659 1824.166588,34210.919481"/>
    <poly id="1156787783#1" type="sport" color="79,230,125" fill="1" layer="-2.00" shape="1824.166588,34210.919481 1809.010529,34219.347940 1797.301391,34232.098017 1790.214159,34247.861483 1788.489526,34265.043111 1792.289555,34281.893763 1801.228988,34296.687432 1814.406642,34307.942558 1830.477840,34314.499374 1848.986743,34315.561768 1866.782137,34310.393833 1881.809921,34299.585905 1892.316653,34284.380820 1897.076562,34266.562826 1895.545976,34248.191661 1887.914598,34231.392163 1875.043111,34218.110866 1858.442154,34209.905735 1841.221941,34207.656659 1824.166588,34210.919481"/>
    <poly id="1156787804" type="water" color="181,209,209" fill="0" layer="-4.00" shape="3472.572168,36324.449936 3456.803300,36324.034053 3425.998950,36280.963160 3389.643350,36234.459462 3361.893804,36232.824455 3326.220327,36223.023339 3285.546399,36217.802224 3261.190609,36190.028518 3225.882533,36170.619421 3171.450172,36169.318408 3123.839047,36135.497221 3093.211369,36129.694771 3052.099429,36122.172732 3016.404261,36117.995216 2980.257053,36138.988651 2939.964932,36163.542402 2912.426960,36158.974624 2890.938779,36141.711705 2895.861344,36104.302205 2921.668875,36040.026022 2908.504359,36005.348717 2871.356574,35967.713554 2854.100722,35949.745994"/>
    <poly id="1156787805" type="water" color="181,209,209" fill="0" layer="-4.00" shape="2854.100722,35949.745994 2855.113516,35926.489019"/>
    <poly id="1157001187" type="residential" color="235,235,227" fill="1" layer="-3.00" shape="4429.769289,36052.253964 4422.009263,36074.415034 4413.622353,36098.403462 4451.564686,36112.962808 4483.110921,36099.872228 4520.922258,36103.839279 4556.185411,36197.754248 4593.978953,36190.973863 4626.500992,36263.409258 4760.135496,36245.747827 4819.742195,36369.143947 5070.973461,36430.491317 5166.839056,36428.998712 5232.680497,36235.591313 5137.992342,36121.635890 5090.631642,36054.591505 5108.156810,36042.476529 5140.614609,36075.995773 5164.909988,36067.899024 5182.323492,35979.266935 5360.364315,35863.538314 5289.905102,35706.586370 5202.180006,35732.227996 5195.509866,35784.593184 5007.930092,35843.966485 4943.043140,35795.745214 4899.884520,35825.345827 4925.661016,35903.160960 4886.511707,35908.592357 4779.784402,35868.497266 4783.791077,35842.988671 4862.029784,35801.244115 4842.999891,35719.389207 4730.900871,35698.086568 4648.590523,35731.780439 4617.712008,35844.597871 4555.628117,35856.775080 4358.537206,35882.611590 4327.513748,35943.661907 4445.299571,36007.832204 4429.769289,36052.253964"/>