<?xml version="1.0" encoding="UTF-8"?>

<!-- generated on 2024-10-22 07:45:49.391394 by randomTrips.py v1_21_0+0000-d7b3b481c43
<configuration>
    <net-file value="baripada.net.xml"/>
    <route-file value="bpd.rou.xml"/>
    <length value="True"/>
    <end value="100.0"/>
</configuration>
-->

<!-- generated on 2024-10-22 07:45:49 by Eclipse SUMO duarouter Version 1.21.0
<duarouterConfiguration xmlns:xsi="http://www.w3.org/2001/XMLSchema-instance" xsi:noNamespaceSchemaLocation="http://sumo.dlr.de/xsd/duarouterConfiguration.xsd">

    <input>
        <net-file value="baripada.net.xml"/>
        <route-files value="trips.trips.xml"/>
    </input>

    <output>
        <output-file value="bpd.rou.xml"/>
        <alternatives-output value="NUL"/>
    </output>

    <time>
        <begin value="0"/>
        <end value="100.0"/>
    </time>

    <report>
        <no-warnings value="true"/>
        <ignore-errors value="true"/>
        <no-step-log value="true"/>
    </report>

</duarouterConfiguration>
-->

<routes xmlns:xsi="http://www.w3.org/2001/XMLSchema-instance" xsi:noNamespaceSchemaLocation="http://sumo.dlr.de/xsd/routes_file.xsd">
    <vehicle id="0" depart="0.00">
        <route edges="1157076756#2 602590536#5 602577274#4 -1156787789#1 -1156787789#0 1156775451#0 1156775451#1 1156775451#2 1156775454#1 1156775453#1 -1156775449"/>
    </vehicle>
    <vehicle id="1" depart="1.00">
        <route edges="-234976615#0 -1269281582 -1269281581#3 1269281581#3 1269281582 234976615#0 234976615#1 234976615#2 234976615#3 234976615#4 1156787774#0 1156787774#1 1156787774#2 1156787774#3 1156787774#4 1156787774#5 1156787773#0 1156787773#1 1156990852#0 1156990852#1 1156990852#2 1311210839#0 1311210839#1 -660276220#3 -660276220#2 -660276220#1 -660276220#0 -602584766#25 1172656853 1172656851 1172656852#0 1172656852#1 1172656852#2 -1257699126#9 -1257699126#8 -1257699126#7 -1257699126#6 -1257699126#5 -1257699126#4 1257698141#3 1257699129#0 1257699129#1 1257699129#2 -1257699360#2 -1257699360#1"/>
    </vehicle>
    <vehicle id="2" depart="2.00">
        <route edges="1257698136#0 -1257698136#0 -1257698137 -1106486041#1 -1106486041#0 -1221909648#2 -1221909648#1 -1221909648#0 -602584766#9 -602584766#8 -602584766#7 -602584766#6 -602584766#5 -602584766#4 -602584766#3 -602584766#2 -602584766#1 -602584766#0 -1257684894#2 -1257684894#1 1257684893#0 1257684893#1 1157001196#0 1157001196#1 -1157001202#1 1257684890"/>
    </vehicle>
    <vehicle id="3" depart="3.00">
        <route edges="624112961#0 624112961#1 624112961#2 -624112961#2 -624112961#1 -624112961#0 660276220#0 660276220#1 660276220#2 660276220#3 1156990853#0 1156990853#1 1156990851 1308984349 1308984348 1156990854#0 1156990854#1 -1156787773#1 -1156787773#0 1156787775#0 1156787775#1 1156787775#2 1156787775#3 -234976615#4 -234976615#3 -234976615#2 -234976615#1 -234976615#0 -1269281582 -1269281581#3 -1269281581#2 -1269281581#1 -1269281581#0 1156787780#1 1156787779#6 1156787779#7 1156787779#0 1156787779#1 1156787786#0 1156787786#1 -1156787794#18 -1156787794#17 -1156787794#16 -1156787794#15 -1157012569"/>
    </vehicle>
    <vehicle id="4" depart="4.00">
        <route edges="-624112961#4 -624112961#3 -624112961#2 -624112961#1 -624112961#0 660276220#0 660276220#1 660276220#2 660276220#3 1156990853#0 1156990853#1 1156990851 1308984349 1308984348 1311210841#0 1311210841#1 1311210841#2 1311210841#3 1311210841#4 1311210841#5 1311210841#6 1156990865 121145022#1 121145022#2 121145022#3 121145022#4 121145022#5 121145022#6 121145022#7 1156787799#0 1156787799#1 1156787799#2 1156787806#0 1156787806#1 -602585520#2 -602585520#1 -602585520#0 -1156775457#2"/>
    </vehicle>
    <vehicle id="5" depart="5.00">
        <route edges="-1257380173#0 1257427910#1 -1156990885#18 -1156990885#17 -1156990885#16 -1156990885#15 -1156990885#14 -1156990885#13 -1156990885#12 -1156990885#11 -1156990885#10 -1156990885#9 -1156990885#8 -1156990885#7 -1156990885#6 -1156990885#5 -1156990885#4 -1156990885#3 -1156990885#2 -1156990885#1 -1156990885#0 1156990862#2 1156990862#3 1311210843 121145022#0 121145022#1 1156990887#1 1156990887#2 1156990887#3 1156990887#4 -1157003115#1 -1157003114#1 1157003113#3"/>
    </vehicle>
    <vehicle id="6" depart="6.00">
        <route edges="-1156787795#2 -1156787795#1 -1156787795#0 -1156787794#11 -1156787794#10 -1156787794#9 -1156787794#8 -1156787794#7 -1156787794#6 -1156787794#5 1157012572#0 1157012572#1 -624188592#4 -624188593#4 -1157014225#0 -1157014226 -602588546#5 -602588546#4 -602588546#3 -602588546#2 -602588546#1 -602588546#0 602593551#0 602593551#1 602593551#2 602593551#3 602593551#4 -1156990861 1257684894#0 1257684894#1 1257684894#2 602584766#0 602584766#1 602584766#2 602584766#3 602584766#4 602584766#5 602584766#6 602584766#7 602584766#8 1257689143#0 1257689144#0 1257689144#1 1257689145#1 1234537784#1 1234537784#2 -1257680140#1"/>
    </vehicle>
    <vehicle id="7" depart="7.00">
        <route edges="1171264672 -1171264672 -624112961#2 -624112961#1 -624112961#0 660276220#0 660276220#1 660276220#2 660276220#3 1156990853#0 1156990853#1 1156990851 1308984349 1308984348 1156990854#0 1156990854#1 -1156787773#1 -1156787773#0 1156787775#0 624188569#1 624188569#2 624188569#3 -1157076143#1 -1157076142#3 -1157076142#2 -1157076142#1 1157076144"/>
    </vehicle>
    <vehicle id="8" depart="8.00">
        <route edges="-1257380173#0 1257427910#1 -1156990885#18 -1156990885#17 -1156990885#16 -1156990885#15 -1156990885#14 -1156990885#13 -1156990885#12 -1156990885#11 -1156990885#10 -1156990885#9 -1156990885#8 -1156990885#7 -1156990885#6 -1156990885#5 -1156990885#4 -1156990885#3 -1156990885#2 -1156990885#1 -1156990885#0 1156990862#2 1156990864 1311210840#2 1311210840#3 1257684894#0 1257684894#1 1257684894#2 602584766#0 602584766#1 602584766#2 602584766#3 602584766#4 602584766#5 602584766#6 602584766#7 602584766#8 602584766#9 602584766#10 602584766#11 602584766#12 602584766#13 602584766#14 602584766#15 602584766#16 602584766#17 602584766#18 602584766#19 602584766#20 602584766#21 602584766#22 602584766#23 602584766#24 1172656853 1172656851 1172656852#0 1172656852#1"/>
    </vehicle>
    <vehicle id="9" depart="9.00">
        <route edges="602583618#1 -1257698139#5 -1257698139#4 -1257698139#3 -1257698139#2 -1257698139#1 -1257698139#0 -1172656852#3 -1172656852#2 -1172656852#1 -1172656852#0 -1172656851 -1172656853 602584766#25 660276220#0 660276220#1 660276220#2 660276220#3 1156990853#0 1156990853#1 1156990851 1308984349 1308984348 1156990854#0 1156990854#1 -1156787773#1 -1156787773#0 1156787775#0 624188569#1 624188569#2 -624188570#9 -624188570#8 -624188570#7 -624188570#6 1269279225 -1122109159#5 -1122109159#4 -1122109159#3 -1122109159#2"/>
    </vehicle>
    <vehicle id="10" depart="10.00">
        <route edges="602582383#1 1128435240#0 1128435240#1 -602577275#5 -602577275#4 602585520#0 602585520#1 602585520#2 1156787803#0 1156787798#0 1156787798#1 1156787798#2 -1156787799#2 -1156787799#1 -1156787799#0 1156787800#0 1156787800#1 1156787800#2 1156787800#3 1156787800#4 1156787800#5 1156787800#6 1156787800#7 1311210842 1311210840#0 1311210840#1 1311210840#2 1311210840#3 1257684894#0 1257684894#1 1257684894#2 602584766#0 602584766#1 602584766#2 602584766#3 602584766#4 602584766#5 602584766#6 602584766#7 602584766#8 602584766#9 1221909648#0 1221909648#1 1221909648#2 1106486041#0 1106486041#1 1257698137 1257698136#0 1257698136#1 1257698136#2 1257698136#3 1257698136#4 1257699128 1257698138#0 -1257699129#6 -1257699129#5 -1257699129#4 -1257699129#3 -1257699129#2 -1257699129#1 1257699130#3 1257700454#1 1257700454#2 1257699134"/>
    </vehicle>
    <vehicle id="11" depart="11.00">
        <route edges="-602584766#20 -602584766#19 -602584766#18 -602584766#17 -602584766#16 -602584766#15 -602584766#14 -602584766#13 -602584766#12 -602584766#11 -602584766#10 -602584766#9 -602584766#8 -602584766#7 -602584766#6 -602584766#5 -602584766#4 -602584766#3 -602584766#2 -602584766#1 -602584766#0 -1257684894#2 -1257684894#1 -1257684894#0 1156990861 1311210841#5 1311210841#6 1311210841#7 1311210844 1311210842 1156990862#0 1156990862#1 1156990885#0 1156990885#1 1156990885#2 1156990885#3 1156990885#4 1156990885#5 1156990885#6 1156990885#7 1156990885#8 1156990885#9 1156990885#10 -1257367839 -1214011366#0"/>
    </vehicle>
    <vehicle id="12" depart="12.00">
        <route edges="660276220#0 660276220#1 660276220#2 660276220#3 1156990853#0 1156990853#1 1156990851 1308984349 1308984348 1311210841#0 1311210841#1 1311210841#2 1311210841#3 1311210841#4 -602593551#4 -602593551#3"/>
    </vehicle>
    <vehicle id="13" depart="13.00">
        <route edges="-1157076119 -1157076117#0 -1157076118 -624188584#1 -624188585#2 -624188585#1 -624188585#0 -1157016969#2"/>
    </vehicle>
    <vehicle id="14" depart="14.00">
        <route edges="602583618#3 -602583618#3 1172657462#0"/>
    </vehicle>
    <vehicle id="15" depart="15.00">
        <route edges="602582383#3 -602577275#7 -602577275#6 -602577275#5 -602577275#4 602585520#0 602585520#1 602585520#2 1156787803#0 1156787798#0 1156787798#1 1156787798#2 -1156787799#2 -1156787799#1 -1156787799#0 1156787800#0 1156787800#1 1156787800#2 1156787800#3 1156787800#4 1156787800#5 1156787800#6 1156787800#7 1311210842 1311210840#0 1311210840#1 1311210840#2 1311210840#3 1311210840#4 -1156990860 1311210841#3"/>
    </vehicle>
    <vehicle id="16" depart="16.00">
        <route edges="1156787781#2 1156787779#0 1156787779#1 1156787779#2 1156787779#3 1156787779#4 1156787780#0 1269281581#0 1269281581#1 1269281581#2 1269281581#3 1269281582 234976615#0 234976615#1 234976615#2 234976615#3 234976615#4 1156787774#0 1156787774#1 1156787774#2 1156787774#3 1156787774#4 1156787774#5 1156787773#0 1156787773#1 1156990852#0 1156990852#1 1156990852#2 1311210838 1308981786#0 1308981786#1 -1311203712 -234976611 -1311213360 1156990878 977349449"/>
    </vehicle>
    <vehicle id="17" depart="17.00">
        <route edges="-624112961#3 -624112961#2 -624112961#1 -624112961#0 660276220#0 660276220#1 660276220#2 660276220#3 1156990853#0 1156990853#1 1156990851 1308984349 1308984348 1156990854#0 1156990854#1 -1156787773#1 -1156787773#0 1156787775#0 624188569#1 624188569#2 624188569#3 624188569#4 624188569#5 624188569#6 624188569#7 624188569#8 1157076148 1157076149"/>
    </vehicle>
    <vehicle id="18" depart="18.00">
        <route edges="602583618#3 -624112961#3 -624112961#2 -624112961#1 -624112961#0 -602584766#25 -602584766#24 -602584766#23 1172660349"/>
    </vehicle>
    <vehicle id="19" depart="19.00">
        <route edges="602584766#25 660276220#0 660276220#1 660276220#2 660276220#3 1156990853#0 1156990853#1 1156990851 1308984349 1308984348 1156990854#0 1156990854#1 -1156787773#1 -1156787773#0 1156787775#0 1156787775#1 1156787775#2 1157006050#0 1157006050#1 1157006051 1157006052#0 1157006052#1 1157006052#2 1157006060 1157006061 1157006062#0 1157079416#0"/>
    </vehicle>
    <vehicle id="20" depart="20.00">
        <route edges="1257366124#1 1257366124#2 1257366122#2 -1156990885#5 -1156990885#4 -1156990885#3 -1156990885#2 -1156990885#1 -1156990885#0 1156990862#2 1156990864 1311210840#2 1311210840#3 1311210840#4 -1156990860 -1156990859"/>
    </vehicle>
    <vehicle id="21" depart="21.00">
        <route edges="-1257682431#1 -1257682431#0 -602584766#2 -602584766#1 -602584766#0 -1257684894#2 -1257684894#1 -1257684894#0 1311210840#4 1311210840#5 1156990858 1311210839#1 -660276220#3 -660276220#2 -660276220#1 -660276220#0 624112961#0 624112961#1 624112961#2 624112961#3 -602583618#3"/>
    </vehicle>
    <vehicle id="22" depart="22.00">
        <route edges="-1157012575 1156787803#4 624188592#0 624188592#1 624188592#2 -1157014225#1 -1157014225#0 -1157014226 -602588546#5 -602588546#4 -602588546#3 -602588546#2 -602588546#1 -602588546#0 602593551#0 602593551#1 602593551#2 602593551#3 602593551#4 -1156990861 1257684894#0 1257684894#1 1257684894#2 602584766#0 602584766#1 602584766#2 602584766#3 602584766#4 602584766#5 602584766#6 602584766#7 602584766#8 602584766#9 1221909648#0 1221909648#1 1221909648#2 1106486041#0 1106486041#1 1257698137 1257698136#0 1257698136#1 1257698136#2 1257698136#3 1257698136#4 1257698139#0 1257698139#1 1257698139#2 1257698139#3 1257698139#4 1257703580 -1257703581 1257703581 -1257703580"/>
    </vehicle>
    <vehicle id="23" depart="23.00">
        <route edges="-1157076140 -1157076129#0 1157076128#1 602589088#9 602589088#10 602589088#11 602589088#12 602589088#13 1156787779#7 1156787779#0 1156787779#1 1156787779#2 1156787779#3 1156787779#4 1156787780#0 1269281581#0 1269281581#1 1269281581#2 1269281581#3 1269281582 234976615#0 234976615#1 234976615#2 234976615#3 234976615#4 1156787774#0 1156787774#1 1156787774#2 1156787774#3 1156787774#4 1156787774#5 1156787773#0 1156787773#1 1156990852#0 1156990852#1 1156990852#2 1311210839#0 1311210839#1 -660276220#3 -660276220#2 -660276220#1 -660276220#0 624112961#0 624112961#1 624112961#2 624112961#3 -602583618#3"/>
    </vehicle>
    <vehicle id="24" depart="24.00">
        <route edges="1157076146#1 977349448#1 1308980763 977349451#0 977349451#1 1311213360 234976611 1311203712 1156990855#0 1156990855#1 1311210841#0 1156990852#2 1311210839#0 1311210839#1 -660276220#3 -660276220#2 -660276220#1 -660276220#0 624112961#0 624112961#1 624112961#2 624112961#3 -624112961#3"/>
    </vehicle>
    <vehicle id="25" depart="25.00">
        <route edges="-602593551#4 602593551#4 -1156990861 1257684894#0 1257684894#1 1257684894#2 602584766#0 602584766#1 602584766#2 602584766#3 602584766#4 602584766#5 602584766#6 602584766#7 602584766#8 602584766#9 602584766#10 602584766#11 602584766#12 602584766#13 602584766#14 602584766#15 602584766#16 602584766#17 602584766#18 602584766#19 602584766#20 602584766#21 1172660350#0 1172660350#1 1172660350#2 1172660350#3 1172660350#4 -1257694394"/>
    </vehicle>
    <vehicle id="26" depart="26.00">
        <route edges="-1269279226 1269279224#2 1122109159#7 1122109159#8 624188571#5 624188571#6 -234976615#2 -234976615#1 -234976615#0 -1269281582 -1269281581#3 -1269281581#2 -1269281581#1 -1269281581#0 1156787780#1 1156787779#6 1156787779#7 1156787779#0 1156787779#1 1156787786#0 1156787786#1 -1156787794#18 -624188592#11 -624188592#10 -624188592#9 -624188592#8 624188584#1"/>
    </vehicle>
    <vehicle id="27" depart="27.00">
        <route edges="1171264672 1172657463#1 1172657462#2"/>
    </vehicle>
    <vehicle id="28" depart="28.00">
        <route edges="-1172657463#0 -1172656852#0 -1172656851 -1172656853 602584766#25 660276220#0 660276220#1 660276220#2 660276220#3 1156990853#0 1156990853#1 1156990851 1308984349 1308984348 1311210841#0 1311210841#1"/>
    </vehicle>
    <vehicle id="29" depart="29.00">
        <route edges="-1172657462#1 -1172656852#1 -1172656852#0 -1172656851 -1172656853 602584766#25 660276220#0 660276220#1 660276220#2 660276220#3 1156990853#0 1156990853#1 1156990851 1308984349 1308984348 1156990854#0 1156990854#1 -1156787773#1 -1156787773#0 1156787775#0 1156787775#1 1156787775#2 1156787775#3 -234976615#4 -234976615#3 -624188571#6 -624188571#5 -624188571#4 -624188571#3 -624188571#2 -624188571#1 -1157076134 -1157076135 -624188572#9"/>
    </vehicle>
    <vehicle id="30" depart="30.00">
        <route edges="977349448#0 977349448#1 1308980763 977349451#0 977349451#1 1311213360 234976611 1311203712 1156990855#0 1156990855#1 1311210841#0 1311210841#1 1311210841#2 1311210841#3 1311210841#4 -1156990861 1257684894#0 1257684894#1 1257684894#2 602584766#0 602584766#1 602584766#2 602584766#3 602584766#4 602584766#5 602584766#6 602584766#7 602584766#8 1257689143#0 1257689144#0 1257689144#1 1257689145#1 1234537784#1 1234537784#2"/>
    </vehicle>
    <vehicle id="31" depart="31.00">
        <route edges="1156990856 1156990854#1 1156990852#0 1156990857 1311210841#2 1311210841#3 1311210841#4 -1156990861 1257684894#0 1257684894#1 1257684894#2 602584766#0 602584766#1 602584766#2 602584766#3 602584766#4 602584766#5 602584766#6 602584766#7 602584766#8 602584766#9 1221909648#0 1221909648#1 1221909648#2 1106486041#0 1106486041#1 1257698137 1257698136#0"/>
    </vehicle>
    <vehicle id="32" depart="32.00">
        <route edges="602583618#3"/>
    </vehicle>
    <vehicle id="33" depart="33.00">
        <route edges="-1257682432 -1257682431#0 -602584766#2 -602584766#1 -602584766#0 -1257684894#2 -1257684894#1 -1257684894#0 1156990861 -602593551#4 -602593551#3 -602593551#2 -602593551#1 -602593551#0 -1157006052#3 -1157006052#2 -1157006052#1 -1157006058 -1157006057 -1157006056#5 -1157006056#4 -1157006056#3 -1157006056#2 -1157006056#1 -1157006056#0 -1269281581#1 -1269281581#0 1156787780#1 1156787779#6 1156787777#0 1156787777#1 1156787777#2 -1156787778#3 -1156787778#2 -1156787778#1"/>
    </vehicle>
    <vehicle id="34" depart="34.00">
        <route edges="-602583618#3"/>
    </vehicle>
    <vehicle id="35" depart="35.00">
        <route edges="-1257368465#0 -1257368466#1 1257368467 -1257368468#0 -1255929489#2 -1255929489#1 -1255929489#0 -1255929490#1 -1255929490#0 -1156990885#2 -1156990885#1 -1156990885#0 1156990862#2 1156990862#3 1311210843 121145022#0 121145022#1 121145022#2 121145022#3 121145022#4 121145022#5 121145022#6 121145022#7 1156787799#0 1156787799#1 1156787799#2 1156787806#0 1156787806#1 1156787803#0 1156787803#1 1156787803#2 1156787803#3 1156787803#4 624188592#0 624188592#1 624188592#2 624188592#3 624188592#4 624188592#5 624188592#6 624188592#7"/>
    </vehicle>
    <vehicle id="36" depart="36.00">
        <route edges="602589088#0 602591353 602577273#11 602577273#12 602577273#13 602577273#14 602577273#15 1156787787#1 1156787787#2 1156787779#3 1156787779#4 1156787780#0 1269281581#0 1269281581#1 1157006056#0 1157006056#1 1157006056#2 1157006056#3 1157006056#4 1157006056#5 1157006057 1157006058 1157006052#1 1157006052#2 1157006052#3 602593551#0 602593551#1 602593551#2 602593551#3 602593551#4 -1156990861 1257684894#0 1257684894#1 1257684894#2 602584766#0 602584766#1 602584766#2 602584766#3 602584766#4 602584766#5 602584766#6 602584766#7 602584766#8 602584766#9 -602584766#9"/>
    </vehicle>
    <vehicle id="37" depart="37.00">
        <route edges="1172656852#2 1257699126#10 -1257701893 -1257698136#1 -1257698136#0 -1257698137 -1106486041#1 -1106486041#0 -1221909648#2 -1221909648#1 -1221909648#0 -602584766#9 -602584766#8 -602584766#7 -602584766#6 -602584766#5 -602584766#4 -602584766#3 -602584766#2 -602584766#1 -602584766#0 -1257684894#2 -1257684894#1 -1257684894#0 1156990861 -602593551#4 -602593551#3 -602593551#2 -602593551#1 -602593551#0 602588546#0 602588546#1 602588546#2 602588546#3 602588546#4 602588546#5 1157014226 1157014225#0 -624188593#3 -624188593#2"/>
    </vehicle>
    <vehicle id="38" depart="38.00">
        <route edges="624112961#3 -624112961#3 -624112961#2 -624112961#1 -624112961#0 660276220#0 660276220#1 660276220#2 660276220#3 1156990853#0 1156990853#1"/>
    </vehicle>
    <vehicle id="39" depart="39.00">
        <route edges="-1257703579#1 1257703578 1257703577#0 -1257698139#2 -1257698139#1 -1257698139#0 -1257698136#4 -1257698136#3 -1257698136#2 -1257698136#1 -1257698136#0 -1257698137 -1106486041#1 -1106486041#0 -1221909648#2 -1221909648#1 -1221909648#0 -602584766#9 -602584766#8 -602584766#7 -602584766#6 -602584766#5 -602584766#4 -602584766#3 -602584766#2 -602584766#1 -602584766#0 -1257684894#2 -1257684894#1 -1257684894#0 1156990861 -602593551#4 -602593551#3 -602593551#2 -602593551#1 -602593551#0 602588546#0 602588546#1 602588546#2 602588546#3 602588546#4 602588546#5 1157014226 1157014225#0 1157014225#1 -624188592#2 602577274#0 602577274#1 602577274#2 -602577274#2"/>
    </vehicle>
    <vehicle id="40" depart="40.00">
        <route edges="1156990874#0 1156990874#1 1311210840#0 1311210840#1 1311210840#2 1311210840#3 1311210840#4 1311210840#5 1156990858 1311210839#1 -660276220#3 -660276220#2 -660276220#1 -660276220#0 624112961#0 624112961#1 624112961#2 624112961#3 -602583618#3"/>
    </vehicle>
    <vehicle id="41" depart="41.00">
        <route edges="1157001194 -1157001194 -1157001193#0 602584766#6 602584766#7 602584766#8 602584766#9 602584766#10 602584766#11 602584766#12 602584766#13 602584766#14 602584766#15 602584766#16 602584766#17 602584766#18 602584766#19 602584766#20 602584766#21 602584766#22 602584766#23 602584766#24 602584766#25 624112961#0 624112961#1 624112961#2 624112961#3 624112961#4"/>
    </vehicle>
    <vehicle id="42" depart="42.00">
        <route edges="-624112961#3 1171264672 1172657463#1 -1172657462#1 1172656852#2 -1257699126#9 -1257699126#8 -1257699126#7 -1257699126#6 -1257699126#5 -1257699126#4 1257698141#3 1257699129#0 1257699129#1 1257699129#2 -1257699360#2 -1257699127#1"/>
    </vehicle>
    <vehicle id="43" depart="43.00">
        <route edges="977349448#0 977349448#1 1308980763 1156990882 1156990881 1156990883#0 1156990883#1 -1156787773#0 1156787775#0 1156787775#1 1156787775#2 1157006050#0 1157006050#1"/>
    </vehicle>
    <vehicle id="44" depart="44.00">
        <route edges="-1157016977#1 1157016975 -602577273#2 -602577273#1 -602577273#0 1156787789#0 1156787789#1 1156787789#2 1156787789#3 1156787793#1 1156787790#6 1156787790#7 1156787790#0 1156787790#1 1156787792#0 1156787794#0 -1156787803#7 -1156787803#6 -1156787803#5 -1156787803#4 -1156787803#3 -1156787803#2 -1156787803#1 1156787798#0 1156787798#1 1156787798#2 -1156787799#2 -1156787799#1 -1156787799#0 1156787800#0 1156787800#1 1156787800#2 1156787800#3 1156787800#4 1156787800#5 1156787800#6 1156787800#7 1311210842 1156990862#0 1156990862#1 1156990885#0 1156990885#1 -1156990885#1"/>
    </vehicle>
    <vehicle id="45" depart="45.00">
        <route edges="-1157076149 -1157076148 -624188569#8 -624188569#7 -624188569#6 -624188569#5 -624188569#4 -624188569#3 -624188569#2 -624188569#1 -624188569#0 1156787774#4 1156787774#5 1156787773#0 1156787773#1 1156990852#0 1156990852#1 1156990852#2 1311210839#0 1311210839#1 -660276220#3 -660276220#2 -660276220#1 1214598575"/>
    </vehicle>
    <vehicle id="46" depart="46.00">
        <route edges="1311210841#6 1311210841#7 1311210844 1311210842 1311210840#0 1311210840#1 1311210840#2 1311210840#3 1311210840#4 1311210840#5 1311210840#6 1311210838 1156990851 1308984349 1308984348 1156990854#0 1156990854#1 -1156787773#1 -1156787773#0 1156787775#0 -624188569#0 1156787774#4 1134790954#0"/>
    </vehicle>
    <vehicle id="47" depart="47.00">
        <route edges="-1157003113#3 -1157003113#2 -1157003113#1 -1157003113#0 121145022#4 121145022#5 121145022#6 121145022#7 1156787799#0 1156787799#1 -624188573#1"/>
    </vehicle>
    <vehicle id="48" depart="48.00">
        <route edges="977349448#0 977349448#1 1308980763 1156990882 1156990881 1156990883#0 1156990883#1 -1156787773#0 1156787775#0 1156787775#1 1156787775#2 1156787775#3 -234976615#4 -234976615#3 -234976615#2 -234976615#1 -234976615#0 -1269281582 -1269281581#3 -1269281581#2 -1269281581#1 -1269281581#0 1156787780#1 1156787779#6 1156787777#0 1156787777#1 1156787777#2 -1156787778#3 -602589088#3 -602589088#2 1157016967#0 1157016967#1"/>
    </vehicle>
    <vehicle id="49" depart="49.00">
        <route edges="977349448#0 977349448#1 1308980763 977349451#0 977349451#1 1311213360 234976611 1311203712 1156990855#0 1156990855#1 1311210841#0 1156990852#2 1311210839#0 1311210839#1 -660276220#3 -660276220#2 -660276220#1 -660276220#0 624112961#0 624112961#1 624112961#2 624112961#3"/>
    </vehicle>
    <vehicle id="51" depart="51.00">
        <route edges="1214011367#0 -1214011367#0 -1214011366#1 -1214011366#0 -1156990885#11 -1156990885#10 -1156990885#9 -1156990885#8 -1156990885#7 -1156990885#6 -1156990885#5 -1156990885#4 -1156990885#3 -1156990885#2 -1156990885#1 -1156990885#0 1156990862#2 1156990862#3 1311210843 121145022#0 121145022#1 1156990887#1 1156990887#2 1156990887#3 1156990887#4 1156990887#5 1156990887#6 1156990887#7 1156990887#8 1156990888 1157006053#0 1157006053#1 1157006053#2 1157006053#3 -1157006052#3 -1157006052#2 -1157006052#1 -1157006058 -1157006057 -1157006056#5 -1157006056#4 -1157006056#3 -1157006056#2 -1157006056#1 -1157006056#0 -1269281581#1 -1269281581#0 1156787780#1 1156787779#6 -602589088#13 -602589088#12 -602589088#11 -602589088#10 -602589088#9 -602589088#8 1157076126#0 1157076126#1 -1157076127#0 1157076125#1"/>
    </vehicle>
    <vehicle id="52" depart="52.00">
        <route edges="-1269279226 1269279224#2 1122109159#7 1122109159#8 624188571#5 624188571#6 234976615#3 234976615#4 1156787774#0 1157006050#1 1157006051 1157006052#0 1157006052#1 1157006052#2 1157006052#3 -1157006053#3 -1157006053#2 -1157006053#1 -1157006053#0 -1156990888 -1156990887#8 -1156990887#7 -1156990887#6 -1156990887#5 -1156990887#4 -1156990887#3 -1156990887#2 -1156990887#1 -1156990887#0 1156787800#6 1156787800#7 1311210842 1156990862#0 1156990862#1 1156990885#0 1156990885#1 1156990885#2 1255929490#0 1255929490#1 1255929489#0"/>
    </vehicle>
    <vehicle id="53" depart="53.00">
        <route edges="-1157076149 -1157076148 -624188569#8 -624188569#7 -624188569#6 -624188569#5 -624188569#4 -624188569#3 -624188569#2 -624188569#1 1156787775#1"/>
    </vehicle>
    <vehicle id="54" depart="54.00">
        <route edges="-624188569#2 -624188569#1 1156787775#1 1156787775#2 1156787775#3 -234976615#4 -234976615#3 -234976615#2 -234976615#1 -234976615#0 -1269281582 -1269281581#3 -1269281581#2 -1269281581#1 -1269281581#0 1156787780#1 1156787779#6 1156787779#7 1156787779#0 1156787779#1 1156787786#0 1156787786#1 -1156787794#18 -1156787794#17 -1156787794#16 -1156787794#15 -1156787794#14 -1156787794#13 -1156787794#12 -1156787794#11 -1156787794#10 -1156787794#9 -1156787794#8 -1156787794#7 -1156787794#6 -1156787794#5 -1156787794#4 -1156787794#3 -1156787794#2 -1156787794#1 -1156787794#0 1156787792#1 1156787790#3 1156787790#4 1156787790#5 1156787790#6 1156787791#0 602577275#0 602577275#1 602577275#2 602577275#3 602577275#4 602577275#5 602577275#6 624188600#0 624188600#1 624188600#2"/>
    </vehicle>
    <vehicle id="55" depart="55.00">
        <route edges="602589088#0 602591353 602577273#11 602577273#12 602577273#13 602577273#14 602577273#15 1156787787#1 1156787787#2 1156787779#3 1156787779#4 1156787780#0 1269281581#0 1269281581#1 1269281581#2 1269281581#3 1269281582 234976615#0 234976615#1 234976615#2 234976615#3 234976615#4 1156787774#0 1156787774#1 1156787774#2 1156787774#3 1156787774#4 1156787774#5 1156787773#0 1156787773#1 1156990852#0 1156990852#1 1156990852#2 1311210839#0 1311210839#1 -660276220#3 -660276220#2 -660276220#1 -660276220#0 624112961#0 624112961#1 624112961#2 624112961#3 -602583618#3"/>
    </vehicle>
    <vehicle id="56" depart="56.00">
        <route edges="1106486041#1 -1106486041#1 -1106486041#0 -1221909648#2 -1221909648#1 -1221909648#0 -602584766#9 -602584766#8 -602584766#7 -602584766#6 -602584766#5 -602584766#4 -602584766#3 -602584766#2 -602584766#1 -602584766#0 -1257684894#2 -1257684894#1 -1257684894#0 1156990861 1311210841#5 1311210841#6 1311210841#7 1311210844 1311210842 1156990862#0 1156990862#1 1156990885#0 1156990885#1 1156990885#2 1156990885#3 1156990885#4 1156990885#5 -1257366122#2 -1257366124#2 -1257366124#1"/>
    </vehicle>
    <vehicle id="57" depart="57.00">
        <route edges="624112961#3 624112961#4"/>
    </vehicle>
    <vehicle id="58" depart="58.00">
        <route edges="-602583618#3 -602583618#2 -1257698139#5 -1257698139#4 -1257698139#3 -1257698139#2 -1257698139#1 -1257698139#0 -1257698136#4 -1257698136#3 -1257698136#2 -1257698136#1 -1257698136#0 -1257698137 -1106486041#1 -1106486041#0 -1221909648#2 -1221909648#1 1234537784#0"/>
    </vehicle>
    <vehicle id="59" depart="59.00">
        <route edges="1157006070#0 1157006070#1 1157006065#0 -1157006064 -602588546#0 602593551#0 602593551#1 602593551#2 602593551#3 602593551#4 -1156990861 1257684894#0 1257684894#1 1257684894#2 602584766#0 602584766#1 602584766#2 602584766#3 602584766#4 602584766#5 602584766#6 602584766#7 602584766#8 602584766#9 602584766#10 602584766#11 602584766#12 602584766#13 602584766#14 602584766#15 602584766#16 602584766#17 602584766#18 602584766#19 602584766#20 602584766#21 602584766#22 602584766#23 602584766#24 1172656853 1172656851 1172656852#0 1172657463#0 1172657463#1 -1172657463#1 -1172657463#0"/>
    </vehicle>
    <vehicle id="60" depart="60.00">
        <route edges="1269281577#1 624188571#6 -234976615#2 -234976615#1 -234976615#0 -1269281582 -1269281581#3 -1269281581#2 -1269281581#1 -1269281581#0 1156787780#1 1156787779#6 -602589088#13 -602589088#12 -602589088#11 -602589088#10 624188572#0 624188572#1 624188572#2 624188572#3 624188572#4 1157076132"/>
    </vehicle>
    <vehicle id="62" depart="62.00">
        <route edges="-1106486041#0 -1221909648#2 -1221909648#1 -1221909648#0 -602584766#9 -602584766#8 -602584766#7 -602584766#6 -602584766#5 -602584766#4 -602584766#3 -602584766#2 -602584766#1 -602584766#0 -1257684894#2 -1257684894#1 -1257684894#0 1156990861 -602593551#4 -602593551#3 -602593551#2 -602593551#1 -602593551#0 -1157006052#3 -1157006052#2 -1157006052#1 -1157006058 -1157006057 -1157006056#5 -1157006056#4 -1157006056#3 -1157006056#2 -1157006056#1 -1157006056#0 -1269281581#1 -1269281581#0 1156787780#1 1156787779#6 1156787777#0 1156787777#1 1156787777#2 -1156787778#3 -602589088#3 -602589088#2 -602589088#1 -602589088#0"/>
    </vehicle>
    <vehicle id="63" depart="63.00">
        <route edges="-1156787778#1 1156787778#1 1156787778#2 602589088#4 602589088#5 602589088#6 602589088#7 602589088#8 602589088#9 624188572#0 624188572#1 624188572#2 624188572#3 624188572#4 624188572#5 624188572#6 624188572#7 624188572#8"/>
    </vehicle>
    <vehicle id="64" depart="64.00">