<configuration>
    <input>
        <net-file value="burla.net.xml"/> 
        <route-files value="burla.rou.xml"/> 
        <additional-files value="burla.poly.xml"/>
    </input>
    <time>
        <begin value="0"/>
        <end value="1000"/>
        <step-length value="0.1"/> 
    </time>
</configuration>
