<?xml version="1.0" encoding="UTF-8"?>

<!-- generated on 2024-11-06 20:27:18 by Eclipse SUMO polyconvert Version 1.21.0
<polyconvertConfiguration xmlns:xsi="http://www.w3.org/2001/XMLSchema-instance" xsi:noNamespaceSchemaLocation="http://sumo.dlr.de/xsd/polyconvertConfiguration.xsd">

    <input>
        <net-file value="burla.net.xml"/>
        <osm-files value="burla.osm"/>
        <type-file value="typemap.xml"/>
    </input>

    <output>
        <output-file value="burla.poly.xml"/>
    </output>

</polyconvertConfiguration>
-->

<additional xmlns:xsi="http://www.w3.org/2001/XMLSchema-instance" xsi:noNamespaceSchemaLocation="http://sumo.dlr.de/xsd/additional_file.xsd">
    <location netOffset="-787156.35,-2373515.17" convBoundary="-33990.68,-23271.36,27459.91,33301.78" origBoundary="83.446311,21.228740,84.039076,21.745110" projParameter="+proj=utm +zone=44 +ellps=WGS84 +datum=WGS84 +units=m +no_defs"/>

    <poly id="132006055" type="water" color="181,209,209" fill="1" layer="-4.00" shape="17021.889997,5884.902203 17021.973044,5880.481831 17026.504179,5876.145029 17004.596323,5858.023559 17000.397559,5844.667807 16989.479831,5833.402347 16980.573265,5833.235039 16930.886002,5872.132367 16913.249532,5862.946197 16901.916280,5873.804797 16883.459446,5908.855764 16891.607849,5948.839374 16873.555990,5961.777233 16868.941704,5970.545516 16868.692469,5983.817697 16848.214210,6007.770366 16835.108914,5994.247425 16826.212815,5994.080387 16813.117859,5980.557663 16804.211385,5980.390443 16795.481467,5971.371614 16786.585358,5971.204599 16782.220289,5966.700728 16775.501427,5968.791096 16775.169284,5986.483634 16792.473501,6013.362202 16787.682927,6030.971038 16792.058343,6035.475107 16791.892154,6044.326917 16813.800131,6062.437026 16820.269758,6073.618855 16825.049995,6056.009830 16831.685622,6058.350931 16838.155240,6069.532768 16860.644625,6056.678221 16869.551060,6056.845477 16892.206527,6035.150232 16914.540330,6031.136682 16950.467379,6014.112706 16973.216636,5987.986300 16995.633373,5979.563559 17025.340656,5938.074543 17030.297819,5911.613922 17026.005471,5902.689414 17021.889997,5884.902203"/>
    <poly id="132006068" type="water" color="181,209,209" fill="1" layer="-4.00" shape="12949.121174,4802.119107 12955.583314,4813.309883 12955.009628,4844.273817 12943.771276,4850.703797 12924.025586,4834.845161 12919.741122,4825.922249 12924.353343,4817.153071 12924.599211,4803.881234 12935.847951,4797.451430 12949.121174,4802.119107"/>
    <poly id="132006088" type="water" color="181,209,209" fill="1" layer="-4.00" shape="13114.828335,5707.975535 13128.418486,5694.951140 13141.608715,5704.050415 13150.586711,5699.795145 13161.506848,5711.057686 13161.260683,5724.329553 13167.814784,5731.089337 13185.524791,5735.839624 13194.513155,5731.584572 13201.067241,5738.344371 13200.821040,5751.616242 13171.196079,5788.679581 13162.218121,5792.934835 13122.165543,5792.191965 13095.713405,5778.424975 13064.649109,5773.427157 13047.103247,5759.825402 13033.666961,5763.998062 13007.296664,5745.810972 12996.376462,5734.548545 12996.786582,5712.425095 12992.420523,5707.922382 12992.584608,5699.070787 12999.384812,5692.558638 13030.531219,5693.136051 13048.169497,5702.317708 13050.265279,5708.994776 13069.917338,5729.273791 13083.107562,5738.373019 13105.275936,5743.205889 13107.699784,5732.190843 13103.415934,5723.256755 13114.828335,5707.975535"/>
    <poly id="132006095" type="water" color="181,209,209" fill="1" layer="-4.00" shape="13514.502780,5637.950016 13498.723968,5648.728141 13483.520297,5628.531141 13499.381189,5613.332728 13512.735689,5613.580698 13519.279347,5620.340443 13519.114979,5629.192067 13514.502780,5637.950016"/>
    <poly id="132006097" type="water" color="181,209,209" fill="1" layer="-4.00" shape="13722.042405,5008.966477 13722.371061,4991.274296 13729.171852,4984.762387 13735.797843,4987.101919 13731.103069,5000.291191 13735.469173,5004.794102 13735.304734,5013.645733 13728.596640,5015.726476 13722.042405,5008.966477"/>
    <poly id="132006099" type="water" color="181,209,209" fill="1" layer="-4.00" shape="13724.980359,5210.384809 13714.060169,5199.121889 13714.389051,5181.418627 13721.189771,5174.906724 13738.900127,5179.668637 13754.186357,5195.434498 13751.761829,5206.460582 13736.147113,5208.375830 13724.980359,5210.384809"/>
    <poly id="132006107" type="water" color="181,209,209" fill="1" layer="-4.00" shape="12982.792127,5386.904700 12969.529784,5382.237125 12969.693832,5373.385534 12978.671939,5369.130154 12992.026588,5369.377670 12994.122456,5376.054720 12989.592438,5380.392534 12982.792127,5386.904700"/>
    <poly id="132006108" type="water" color="181,209,209" fill="1" layer="-4.00" shape="12972.157108,4879.998951 12972.075205,4884.419206 12989.550641,4902.441193 12982.750161,4908.953379 12962.850943,4901.946461 12963.260653,4879.834111 12958.894531,4875.320360 12959.222332,4857.628265 12970.471056,4851.198488 12977.097170,4853.537689 12981.217580,4871.312209 12972.157108,4879.998951"/>
    <poly id="132006120" type="water" color="181,209,209" fill="1" layer="-4.00" shape="12295.461264,6088.863823 12295.215766,6102.135624 12301.759634,6108.894843 12310.583968,6113.479834 12337.271171,6113.973538 12350.297815,6131.912645 12365.665750,6143.267995 12374.234113,6161.124641 12374.070536,6169.965127 12389.356624,6185.740749 12398.262691,6185.905552 12404.806482,6192.664823 12404.642681,6201.516390 12415.317262,6226.050225 12453.671742,6197.990923 12454.326640,6162.606803 12481.515471,6136.557312 12468.499330,6118.618272 12469.318063,6074.382582 12473.929775,6065.613336 12505.730313,6030.805696 12505.894157,6021.954125 12521.753674,6006.754906 12539.708942,5998.243760 12557.920505,5976.449926 12599.822628,5997.140271 12599.658735,6005.991847 12623.676914,6030.772910 12628.124813,6030.855275 12643.411045,6046.620070 12642.673705,6086.435556 12649.227823,6093.195125 12689.443258,6085.096410 12693.973223,6080.747464 12707.316889,6080.994623 12711.846655,6076.656760 12722.684675,6092.350334 12722.356944,6110.042423 12708.767462,6123.067083 12708.603705,6131.907588 12704.073747,6136.256529 12707.948055,6167.302842 12703.336433,6176.060955 12711.986308,6189.497575 12711.658370,6207.200742 12707.046753,6215.958854 12713.600787,6222.718459 12740.451875,6214.361263 12753.805803,6214.608666 12772.017285,6192.826140 12789.808726,6193.155789 12807.856466,6180.213805 12825.647926,6180.543492 12830.188073,6176.205853 12838.919974,6185.211218 12847.815703,6185.376076 12870.393299,6168.096329 12892.643019,6168.508716 12906.396505,6146.643681 12928.646261,6147.056114 12946.858271,6125.262670 12968.687535,6147.798417 12973.135414,6147.880880 12995.877332,6121.749688 13026.858982,6131.167715 13080.254352,6132.157921 13089.314091,6123.482383 13111.563909,6123.895064 13120.541886,6119.628726 13173.691109,6133.891111 13202.084340,6163.187219 13201.920311,6172.027751 13228.207437,6194.646620 13236.692646,6216.935185 13236.528594,6225.775720 13256.097692,6250.475343 13260.545552,6250.557888 13272.039860,6230.856528 13276.980155,6204.406389 13286.050554,6195.720066 13286.214836,6186.868451 13306.687024,6162.911942 13308.464599,6187.281413 13308.136009,6204.984647 13294.453645,6222.428941 13293.796892,6257.813249 13284.736886,6266.499756 13284.408515,6284.191910 13292.975836,6302.049174 13283.833808,6315.155949 13283.505431,6332.848103 13267.891690,6334.774745 13263.525891,6330.271927 13243.207850,6345.376655 13243.125612,6349.808001 13271.518501,6379.093220 13276.130617,6370.324157 13285.108318,6366.068999 13296.109901,6372.911434 13284.697680,6388.192502 13275.884283,6383.596042 13264.554130,6394.456853 13271.107879,6401.216721 13284.451337,6401.464388 13324.091961,6424.320271 13344.399636,6409.215453 13344.481904,6404.784104 13329.114597,6393.438790 13320.054634,6402.125272 13311.148625,6401.959948 13300.229324,6390.686151 13329.443034,6375.746630 13342.786519,6375.994342 13349.340249,6382.754245 13353.377546,6404.949255 13352.802675,6435.913310 13339.294908,6444.517204 13339.130576,6453.368824 13345.756173,6455.697187 13370.604294,6436.243822 13371.014853,6414.131385 13366.649103,6409.628532 13389.216915,6392.338204 13393.839260,6383.580439 13398.615599,6365.970859 13398.862032,6352.698963 13408.004145,6339.592245 13399.354894,6326.155173 13399.519249,6317.303551 13410.931423,6302.033624 13422.169089,6295.604056 13417.885599,6286.669841 13431.568066,6269.225641 13427.366651,6255.871151 13422.990497,6251.368095 13423.401298,6229.244576 13427.941617,6224.907086 13428.763013,6180.671126 13442.353116,6167.647005 13442.681643,6149.954836 13456.528603,6123.659017 13469.872309,6123.906810 13465.095860,6141.516382 13464.027911,6199.024249 13468.311409,6207.958476 13463.288500,6238.839946 13436.015927,6269.308235 13435.523018,6295.852030 13439.724411,6309.206524 13446.278137,6315.966467 13459.621683,6316.214270 13475.481979,6301.015906 13450.972456,6302.777167 13448.948872,6291.668470 13455.666781,6289.587869 13480.587006,6265.714163 13481.244375,6230.318735 13476.878594,6225.815856 13477.125075,6212.543956 13508.681502,6190.998878 13526.976240,6164.796800 13527.305064,6147.093543 13536.447380,6133.986874 13532.245995,6120.632353 13536.776004,6116.294695 13528.126703,6102.857559 13528.290905,6094.017009 13521.737104,6087.257042 13512.841277,6087.091819 13506.369768,6075.900507 13528.866226,6063.041851 13533.478350,6054.283916 13538.337194,6032.243000 13558.655907,6017.138566 13597.958009,6057.698114 13651.682792,6040.986908 13683.157449,6023.873463 13709.855439,6024.369606 13723.445912,6011.345679 13768.028232,6007.752499 13787.596926,6032.452823 13791.633596,6054.659074 13804.576676,6077.019819 13808.613302,6099.226079 13812.979043,6103.729054 13812.567939,6125.841546 13808.037642,6130.190214 13807.873284,6139.030779 13825.418162,6152.633488 13840.538463,6177.262292 13853.892530,6177.510600 13867.729821,6151.214862 13894.592250,6142.859686 13903.652689,6134.173472 13930.432753,6130.249715 13966.365911,6113.219723 13980.121212,6091.344342 14011.760680,6065.390927 14029.645236,6061.290749 14038.788035,6048.184309 14096.714278,6044.840301 14094.865941,6024.891089 14106.186375,6014.041651 14133.049198,6005.686829 14173.101548,6006.432264 14208.942637,5993.822849 14231.439892,5980.965089 14243.328623,5980.266587 14254.009111,5963.686868 14267.363396,5963.935496 14274.164092,5957.423832 14287.919737,5935.559728 14283.636565,5926.625242 14299.498068,5911.427552 14317.382699,5907.338741 14337.774563,5887.803611 14324.114392,5866.659146 14289.982753,5790.774984 14282.494190,5764.592223 14302.005676,5761.708382 14300.448683,5748.402830 14319.978887,5739.501681 14290.949339,5653.062502 14269.227588,5659.894844 14252.664958,5662.600904 14204.603334,5539.313817 14195.626280,5498.907064 14180.957706,5464.478571 14180.546221,5486.591101 14176.015659,5490.939697 14170.991367,5521.821113 14181.993288,5528.664119 14190.971728,5524.409382 14197.525551,5531.169622 14197.361026,5540.010204 14188.125030,5557.547774 14176.804262,5568.397195 14163.531914,5563.728391 14136.256928,5594.195775 14127.278543,5598.450536 14100.744450,5589.102134 14091.848311,5588.936626 14081.010869,5573.253104 14108.532689,5529.513692 14104.249282,5520.579282 14104.660875,5498.455683 14080.798032,5464.820417 14054.099045,5464.323773 14042.356452,5497.296680 13997.206881,5531.864707 13951.389149,5601.817078 13926.631649,5616.849681 13908.500100,5634.210878 13895.238131,5629.542489 13890.625714,5638.300356 13881.636860,5642.566128 13863.927051,5637.803991 13859.396622,5642.152661 13855.020585,5637.638417 13850.490159,5641.987089 13830.756654,5626.127307 13826.884165,5595.080501 13827.459719,5564.116377 13850.286223,5533.554775 13850.450559,5524.714212 13868.489599,5511.773035 13868.736320,5498.501111 13887.032506,5472.288216 13878.465419,5454.419549 13869.723191,5445.413417 13875.250695,5387.988322 13884.393650,5374.881773 13884.558198,5366.030132 13864.906507,5345.750068 13847.185783,5340.998875 13831.899997,5325.221818 13837.745997,5250.093259 13833.462147,5241.170029 13838.074816,5232.401061 13829.343005,5223.384084 13829.671810,5205.691887 13825.388146,5196.757583 13790.357440,5165.131800 13790.604057,5151.859887 13777.506123,5138.340014 13777.670595,5129.488380 13792.083734,5072.228410 13801.319258,5054.701721 13839.843536,5017.793476 13844.209402,5022.307498 13846.551650,5015.712777 13809.271007,4986.250558 13795.915960,4986.002405 13773.993173,4967.896785 13742.845198,4967.318109 13738.725842,4949.532212 13713.885576,4968.985502 13718.251488,4973.499484 13718.087267,4982.340035 13704.239170,5008.635767 13692.918242,5019.496605 13665.972097,5032.272590 13639.272479,5031.776717 13616.692525,5049.055661 13619.199051,5033.609293 13608.042575,5035.618558 13590.485822,5022.016075 13588.544110,5006.487111 13582.000189,4999.727369 13575.199471,5006.239331 13579.565404,5010.753273 13579.318976,5024.025167 13583.685108,5028.528033 13587.722517,5050.734146 13572.189770,5048.229295 13567.659497,5052.566975 13558.763097,5052.401796 13540.549193,5074.194771 13518.061844,5087.053756 13509.155099,5086.888409 13502.190127,5102.252013 13497.659888,5106.589709 13497.331460,5124.281867 13505.827480,5146.570718 13485.507658,5161.686407 13467.714991,5161.356130 13447.323552,5180.892322 13447.077212,5194.164207 13435.664386,5209.434188 13426.839753,5204.848610 13420.131586,5206.940545 13428.535235,5233.649426 13428.206864,5251.341579 13419.064259,5264.448347 13418.489566,5295.412383 13413.959192,5299.761172 13429.491902,5302.254820 13436.117782,5304.594240 13435.953484,5313.445857 13451.075514,5338.063032 13482.140648,5343.061503 13486.516867,5347.575622 13504.309332,5347.905945 13550.331925,5386.373436 13554.451499,5404.148203 13536.494729,5412.669441 13531.718118,5430.279014 13560.512691,5437.451942 13571.432786,5448.714769 13571.186315,5461.986668 13588.742547,5475.589191 13588.496058,5488.861092 13546.346972,5481.440106 13539.957052,5465.839619 13544.569506,5457.070592 13538.015412,5450.310653 13524.671144,5450.062871 13526.695079,5461.160483 13526.448642,5474.432378 13535.016077,5492.300814 13521.332963,5509.745005 13521.086526,5523.016900 13516.556380,5527.354579 13520.593647,5549.560691 13500.366901,5560.245151 13464.772072,5559.584285 13456.122346,5546.147239 13438.401793,5541.396480 13429.669982,5532.379722 13403.135327,5523.043601 13380.884634,5522.630618 13362.671630,5544.412633 13358.223573,5544.330083 13342.362775,5559.528625 13342.034448,5577.220773 13355.142652,5590.740492 13341.377581,5612.616149 13345.579315,5625.970579 13345.004666,5656.934611 13333.684603,5667.784545 13324.778189,5667.619261 13317.988195,5674.131483 13317.577643,5696.254976 13308.507194,5704.930233 13294.342103,5748.929597 13274.197792,5755.194028 13260.597387,5768.207039 13233.899063,5767.711689 13232.377825,5730.070574 13206.089643,5707.462877 13206.335843,5694.191006 13195.415926,5682.917354 13177.285131,5700.290345 13155.116909,5695.446302 13139.994887,5670.829407 13124.708662,5655.064135 13102.468566,5654.651705 13084.994385,5636.618392 13071.639948,5636.370773 13058.459790,5627.282837 13027.231302,5631.125645 13020.759048,5619.945672 13025.289225,5615.596795 13014.368932,5604.334366 13000.860760,5612.938595 12989.858515,5606.096443 12985.574560,5597.162400 12981.946466,5552.844141 12986.476442,5548.506330 12986.640511,5539.654736 12982.356532,5530.720697 13000.558610,5508.938122 13001.214699,5473.542825 12997.258636,5446.916674 12984.242335,5428.977232 12984.406394,5420.125639 12998.160490,5398.260608 12998.734612,5367.285572 13003.264637,5362.947760 12994.696359,5345.090764 12994.942345,5331.818915 13008.625157,5314.363255 12995.680293,5292.003368 12991.724130,5265.377231 12967.377252,5258.287812 12944.798421,5275.567572 12926.913676,5279.657937 12924.571841,5286.252743 12897.462885,5307.881469 12890.580694,5318.813926 12883.862303,5320.905878 12881.520490,5327.500688 12877.072388,5327.418277 12848.594858,5302.554341 12839.944497,5289.117705 12840.190350,5275.845869 12829.269885,5264.572533 12820.291569,5268.839076 12811.384969,5268.674101 12793.838320,5255.072719 12776.035478,5254.742998 12769.481012,5247.983418 12776.445206,5232.619588 12792.059862,5230.692355 12785.505391,5223.932770 12767.712884,5223.603253 12754.767624,5201.243609 12721.524324,5193.989843 12737.630516,5165.518901 12746.608651,5161.263387 12768.941799,5157.244110 12782.532023,5144.219410 12800.334988,5144.549124 12817.881767,5158.150498 12835.930554,5145.208420 12870.003769,5108.226845 12870.167742,5099.375261 12884.003966,5073.078795 12911.195136,5047.029753 12906.828848,5042.527090 12906.992836,5033.675505 12938.550192,5012.140238 12938.960096,4990.016811 12950.290627,4979.166776 12972.541995,4979.579077 12988.484789,4959.959902 12979.660121,4955.363521 12981.930261,4953.200242 12990.744766,4957.785353 13022.384511,4931.818886 13035.739526,4932.066394 13053.696448,4923.544575 13069.639395,4903.925462 13079.038219,4877.546853 13070.459310,4859.689654 13041.827624,4843.666159 13032.931144,4843.501282 13028.390413,4847.849988 13021.846216,4841.090509 13022.174286,4823.387330 13004.534759,4814.216904 13000.332442,4800.862633 12987.233608,4787.343517 12992.419822,4747.599335 13006.092450,4730.154511 13002.054117,4707.948656 13013.466770,4692.678384 13024.715624,4686.248629 13011.606332,4672.729311 13011.770349,4663.877723 13025.535540,4642.001765 13000.849304,4652.615393 12996.401013,4652.532972 12978.689952,4647.771967 12965.580590,4634.252695 12949.719458,4649.451669 12945.107189,4658.220846 12953.757889,4671.657499 12957.796509,4693.852254 12944.205803,4706.876863 12943.631961,4737.851869 12939.019918,4746.609967 12943.304195,4755.543960 12918.710649,4761.726549 12911.910151,4768.238768 12911.746180,4777.090351 12884.636501,4798.719187 12875.412306,4816.246484 12879.614715,4829.600711 12870.472412,4842.707758 12870.144710,4860.399842 12860.909982,4877.938029 12849.579460,4888.788127 12836.234797,4888.540968 12827.174422,4897.227781 12818.267618,4897.062827 12802.488925,4907.830574 12793.346724,4920.937652 12797.221521,4951.983932 12776.912636,4967.100648 12768.016242,4966.935909 12749.885496,4984.298327 12745.437305,4984.215964 12731.672742,5006.092088 12705.218975,4992.325940 12703.122919,4985.648950 12687.835781,4969.873150 12676.832955,4963.031283 12672.548408,4954.108448 12668.755405,4918.630901 12657.834353,4907.368807 12648.927565,4907.203945 12637.935048,4900.362304 12620.786909,4864.637608 12625.480757,4851.448120 12599.190455,4828.830622 12581.970507,4797.537502 12564.494548,4779.516024 12551.559153,4757.145742 12551.722925,4748.294179 12531.813018,4741.287645 12523.080271,4732.271494 12505.113144,4740.793700 12487.811144,4713.920956 12465.723212,4704.657807 12439.595953,4673.200149 12435.147687,4673.117881 12445.578131,4710.923378 12440.966165,4719.692664 12462.634512,4751.078944 12466.602153,4777.705010 12479.783340,4786.792334 12479.455868,4804.495453 12488.188796,4813.500504 12487.697772,4840.044106 12505.173524,4858.076579 12487.124768,4871.019028 12486.715710,4893.131312 12477.737320,4897.398057 12477.655551,4901.818298 12495.213215,4915.419447 12507.984963,4946.630177 12507.821200,4955.481739 12516.553814,4964.497897 12516.062710,4991.041508 12498.188205,4995.132560 12502.390842,5008.486660 12501.981531,5030.610027 12495.099541,5041.542631 12466.467776,5025.520177 12475.527664,5016.844272 12473.421153,5010.167130 12464.443033,5014.422796 12437.825386,5009.508668 12433.459177,5004.995071 12417.844399,5006.922670 12430.790078,5029.293045 12430.626556,5038.133525 12443.643584,5056.083483 12441.209804,5067.098387 12426.004296,5046.902615 12412.905279,5033.383992 12413.150752,5020.112195 12399.795872,5019.865191 12381.430548,5050.499954 12381.103143,5068.203066 12400.838789,5084.049746 12423.089923,5084.461309 12438.458923,5095.816602 12441.761504,5157.826569 12446.127663,5162.340174 12427.680596,5197.395121 12413.998398,5214.851206 12411.482882,5230.286352 12395.786562,5236.634186 12393.444951,5243.229044 12375.723902,5238.479525 12366.991391,5229.463432 12358.095168,5229.298901 12346.846985,5235.729046 12346.683288,5244.580601 12354.679438,5293.412070 12359.045781,5297.914575 12358.227643,5342.150203 12366.806739,5360.018049 12382.175686,5371.362240 12391.235563,5362.675234 12404.579791,5362.922073 12415.500434,5374.195096 12436.932789,5418.842380 12440.971751,5441.036961 12469.203755,5479.183025 12493.468605,5490.691954 12488.693177,5508.301698 12497.343658,5521.738129 12497.016055,5539.441262 12501.382286,5543.943819 12491.995031,5570.322814 12467.239354,5585.346411 12462.617181,5594.115478 12435.847313,5598.041913 12426.777151,5606.728692 12386.734699,5605.987890 12350.649286,5631.873060 12332.928674,5627.123536 12319.748382,5618.025174 12310.842008,5617.860451 12293.213693,5608.679849 12278.008633,5588.484165 12273.795676,5575.129928 12258.426884,5563.785823 12249.449120,5568.041567 12231.646694,5567.712403 12222.668737,5571.979239 12209.570067,5558.460743 12200.663666,5558.296085 12200.172945,5584.839658 12213.527339,5585.086553 12224.448129,5596.348374 12224.121018,5614.040399 12199.273412,5633.495490 12181.481433,5633.166565 12170.151674,5644.028106 12176.624455,5655.207671 12194.416409,5655.536594 12207.525367,5669.055279 12220.869324,5669.301997 12227.423790,5676.061350 12202.832007,5682.244830 12189.314254,5690.838407 12149.190167,5694.529482 12142.390354,5701.041945 12141.633682,5741.976202 12141.490947,5749.697765 12145.611860,5767.472007 12152.166307,5774.231332 12174.661812,5761.370880 12205.807897,5761.946721 12214.785547,5757.690966 12241.401948,5762.604871 12252.322377,5773.877808 12256.524905,5787.231855 12247.465516,5795.907824 12249.561595,5802.584751 12276.423162,5794.238007 12285.482774,5785.550973 12301.025194,5788.054846 12276.014216,5816.350280 12262.752120,5811.683264 12258.222428,5816.021246 12249.316167,5815.856545 12237.986669,5826.706953 12237.659304,5844.410062 12228.599954,5853.086038 12239.684005,5855.507418 12250.686310,5862.349046 12232.638787,5875.291634 12234.745224,5881.968752 12248.252699,5873.363958 12274.868698,5878.289020 12268.396298,5867.098317 12270.748174,5860.503645 12275.196109,5860.585907 12290.482619,5876.361384 12285.462000,5907.242952 12302.854850,5929.695577 12302.363877,5956.239176 12293.212209,5969.346240 12297.506962,5978.269184 12296.934225,6009.233023 12290.134456,6015.745418 12272.332518,6015.416151 12265.532763,6021.928555 12278.477605,6044.298904 12278.150368,6061.990942 12282.516488,6066.493453 12295.461264,6088.863823"/>
    <poly id="132006122" type="water" color="181,209,209" fill="1" layer="-4.00" shape="13370.921194,5579.973311 13364.367095,5573.213444 13366.719463,5566.618874 13382.251911,5569.112507 13382.087623,5577.964123 13377.557533,5582.301835 13370.921194,5579.973311"/>
    <poly id="132006134" type="water" color="181,209,209" fill="1" layer="-4.00" shape="13355.759224,6276.661690 13342.251336,6285.265596 13335.369129,6296.197862 13328.815354,6289.437970 13328.979462,6280.597430 13349.451623,6256.640979 13360.453267,6263.483451 13355.759224,6276.661690"/>