<?xml version="1.0" encoding="UTF-8"?>

<!-- generated on 2024-11-06 20:27:41.816487 by randomTrips.py v1_21_0+0000-d7b3b481c43
<configuration>
    <net-file value="burla.net.xml"/>
    <route-file value="burla.rou.xml"/>
    <length value="True"/>
    <end value="100.0"/>
</configuration>
-->

<!-- generated on 2024-11-06 20:27:41 by Eclipse SUMO duarouter Version 1.21.0
<duarouterConfiguration xmlns:xsi="http://www.w3.org/2001/XMLSchema-instance" xsi:noNamespaceSchemaLocation="http://sumo.dlr.de/xsd/duarouterConfiguration.xsd">

    <input>
        <net-file value="burla.net.xml"/>
        <route-files value="trips.trips.xml"/>
    </input>

    <output>
        <output-file value="burla.rou.xml"/>
        <alternatives-output value="NUL"/>
    </output>

    <time>
        <begin value="0"/>
        <end value="100.0"/>
    </time>

    <report>
        <no-warnings value="true"/>
        <ignore-errors value="true"/>
        <no-step-log value="true"/>
    </report>

</duarouterConfiguration>
-->

<routes xmlns:xsi="http://www.w3.org/2001/XMLSchema-instance" xsi:noNamespaceSchemaLocation="http://sumo.dlr.de/xsd/routes_file.xsd">
    <vehicle id="0" depart="0.00">
        <route edges="810901507#7 886064360#10 886064360#11 886064360#12 886064360#13 886064360#14 364543156#0 364543156#1 364543156#2 886134926#0 886134926#1 886134926#2 886134926#3 364543148#0 364543148#1 364543148#2 364543148#3 364543148#4 364660350 364660351 -365146272#2 -365146272#1 -365146272#0 365146272#0 365146272#1 365146272#2 -364660351 -364660350 -364543148#4"/>
    </vehicle>
    <vehicle id="4" depart="4.00">
        <route edges="-888103065#1 -888103065#0 -888103066#1 -888103066#0 -887768417#2 -887768417#1 -887768417#0 886075366#1 886075366#2 886075366#3 886075366#4 886075366#5 886075366#6 886075366#7 886075366#8 886075366#9 886075366#10 886075366#11 886075366#12 886075366#13 886075366#14 886075366#15 -364543140#1 -364543140#0 886064360#1 886064360#2 886064360#3 886064360#4 886064360#5 886064360#6 886064360#7 886064360#8 886064360#9 886064360#10 886064360#11 886064360#12 886064360#13 886064360#14 364543156#0 364543156#1 364543156#2 886134926#0 886134926#1 886134926#2 886134926#3 364543148#0 364543148#1 364543148#2 364543148#3 364543148#4 364660350 364660351 -365146272#2 -365146272#1 -365146272#0 365146272#0 365146272#1 365146272#2 -364660351 -364660350 -364543148#4"/>
    </vehicle>
    <vehicle id="6" depart="6.00">
        <route edges="-364543154 887879028#0 887879028#1 887879028#2 481917080#0 -481917982#0 364543158#25 -887879028#2 -887879028#1 -887879028#0 364543154 364543146#0 364543146#1 364543146#2 364543146#3 364543146#4 364543146#5 364543146#6 364543146#7 364543146#8 364543146#9 364543146#10 364543146#11 364543146#12 364543146#13 364543146#14 886064359#0 886064359#1 886064359#2 886064360#0 886064360#1 886064360#2 886064360#3 886064360#4 886064360#5 886064360#6 886064360#7 886064360#8 886064360#9 886064360#10 -886064360#10"/>
    </vehicle>
    <vehicle id="7" depart="7.00">
        <route edges="885488611#1 329310351#6 329310351#7 329310351#8 329310351#9 329310351#10 329310351#11 329310351#12 329310351#13 329310351#14 329310351#15 329310351#16 887457399#5 887457399#6 90852019 90851902#0 90851902#1 90851902#2 364543158#0 364543158#1 364543158#2 364543158#3 364543158#4 364543158#5 364543158#6 364543158#7 364543158#8 364543158#9 364543158#10 -481917978#1 -481917978#0 -481917979#4 -887881156#5 -887881156#4 -887881156#3 -887881156#2 -887881156#1 481927010#0 -481927013#1 481927015#0 481927015#1"/>
    </vehicle>
    <vehicle id="9" depart="9.00">
        <route edges="887520548#0 887520548#1 -887513253#0 -481914139#11 481927333#0 481927333#1 481927333#2 -364543146#0 -364543154 887879028#0 887879028#1 887879028#2 481917080#0 481917080#1 481917080#2 481917080#3 481917080#4 481917080#5 481917080#6 481917080#7 481917080#8 481917080#9 481917080#10 481917080#11 481917080#12 481917080#13 481917080#14 481917080#15 481917080#16 481917080#17 481917080#18 481917080#19 481917080#20 481917080#21 481917080#22 481917080#23 481917080#24 481917080#25 481917080#26 481917080#27 481917080#28 481917080#29 481917080#30 481917080#31 481917080#32 481917080#33 481917080#34 481917080#35 481917083 583351641#4 583351641#5 583351636 887457402#0 -329310351#17 -329310351#16 -329310351#15 -329310351#14 -329310351#13"/>
    </vehicle>
    <vehicle id="10" depart="10.00">
        <route edges="887520535#0 887520534 -810901712#5 -810901712#4 -810901712#3 -810901712#2 -810901712#1 -810901712#0 -810901507#4 -885842730#5 -885842730#4 -885842730#3 -885842730#2 -885839329#6 -885839329#5 -885839329#4 885839327#0 885839331#0 885839331#1 481914139#33 481914139#34 481914139#35 481914139#36 481914139#37 481914139#38 481914139#39 481914139#40 -886064360#2 -886064360#1 364543140#0 364543140#1 886075365#0 886075365#1 886075365#2 886075365#3 886075365#4 886075365#5 886075365#6 886075365#7 886075365#8 886075365#9 886075365#10 886075365#11 886075365#12 886075365#13 886075365#14 886075365#15 886075365#16 886075365#17 886075365#18 886075365#19 886075365#20 886075365#21 886075365#22 886075365#23 886075365#24"/>
    </vehicle>
    <vehicle id="11" depart="11.00">
        <route edges="-887767374 887767375#1 887753353#1 887753353#2 583351647#2 583351647#3 583351647#4 583351647#5 583351639 583351641#0 583351641#1 364543158#1 364543158#2 364543158#3 364543158#4 364543158#5 364543158#6 364543158#7 364543158#8 364543158#9 364543158#10 364543158#11 364543158#12 364543158#13 364543158#14 364543158#15 364543158#16 364543158#17 364543158#18 364543158#19 364543158#20 364543158#21 364543158#22 364543158#23 364543158#24 364543158#25 -887879028#2 -887879028#1 -887879028#0 364543154 364543146#0 364543146#1 364543146#2 364543146#3 364543146#4 364543146#5 364543146#6 364543146#7 364543146#8 364543146#9 364543146#10 364543146#11 364543146#12 364543146#13 364543146#14 886064359#0 886064359#1 886064359#2 886064360#0 886064360#1 886064360#2 886064360#3 886064360#4 885828854#0 885828854#1 -885828860#5"/>
    </vehicle>
    <vehicle id="13" depart="13.00">
        <route edges="-681456042 -647119905#3 -647119905#2 -647119905#1 -647119905#0 -647134309 -731071111#3 -731071111#2 -731071111#1 -731071111#0 90851902#1 90851902#2 364543158#0 364543158#1 364543158#2 364543158#3 364543158#4 364543158#5 364543158#6 364543158#7 364543158#8 364543158#9 364543158#10 364543158#11 364543158#12 364543158#13 364543158#14 364543158#15 364543158#16 364543158#17 364543158#18 364543158#19 -887878778 481917080#3 -481927008"/>
    </vehicle>
    <vehicle id="14" depart="14.00">
        <route edges="887724767#0 -887724767#0 887724769#1 -887724770#2 -887724770#1 -887724770#0 -887724771#5 -887724771#4 -887724771#3 -887886307 481917978#6 481917979#0 364543158#10 364543158#11 364543158#12 364543158#13 364543158#14 364543158#15 364543158#16 364543158#17 364543158#18 364543158#19 364543158#20 364543158#21 364543158#22 364543158#23 364543158#24 364543158#25 -887879028#2 -887879028#1 -887879028#0 364543154 364543146#0 364543146#1 364543146#2 364543146#3 364543146#4 364543146#5 364543146#6 364543146#7 364543146#8 364543146#9 364543146#10 364543146#11 364543146#12 364543146#13 364543146#14 886064359#0 886064359#1 886064359#2 886064360#0 364543140#0 364543140#1 886075365#0 886075365#1 886075365#2 886075365#3 886075365#4 886075365#5 886075365#6 886075365#7 -730145766#11 -730145766#10 -730145766#9 -730145766#8 -730145766#7 -730145766#6 -730145766#5 -730145766#4 -730145766#3 -730145766#2 -730145766#1 -730145766#0 730145766#0 730145766#1 730145766#2 730145766#3 730145766#4"/>
    </vehicle>
    <vehicle id="16" depart="16.00">
        <route edges="365146272#0 365146272#1 365146272#2 -364660351 -364660350 -364543148#4 -364543148#3 -364543148#2 -364543148#1 -364543148#0 -886134926#3 -886134926#2 -886134926#1 -886134926#0 -364543156#2 -364543156#1 -364543156#0 -886064360#14 -886064360#13 -886064360#12 -886064360#11 -886064360#10 -886064360#9 -886064360#8 -886064360#7 -886064360#6 -886064360#5 -886064360#4 -886064360#3 -886064360#2 -886064360#1 -886064360#0 886064361#0 886064361#1 886064361#2 886064361#3 886064361#4 886064361#5 886064361#6 -364543146#14 -364543146#13 -364543146#12 -364543146#11 -364543146#10 -364543146#9 -364543146#8 -364543146#7 -364543146#6 -364543146#5 -364543146#4 -364543146#3 -364543146#2 -364543146#1 -364543146#0 -364543154 887879028#0 887879028#1 887879028#2 481917080#0 481917080#1 481917080#2 481917080#3 481917080#4 481917080#5 481917080#6 481917080#7 481917080#8 481917080#9 481917080#10 481917080#11 481917080#12 481917080#13 481917080#14 481917080#15 481917080#16 481917080#17 481917080#18 481917080#19 481917080#20 481917080#21 481917080#22 888147815#0 888147815#1 888147815#2 888147815#3 888147815#4 888147815#5 888147815#6 888147815#7 888147815#8 888147815#9"/>
    </vehicle>
    <vehicle id="18" depart="18.00">
        <route edges="887526565#6 887526565#7 481917982#7 481917982#8 481917982#9 481917982#10 481917982#11 481917982#12 481917982#13 481917982#14 481917982#15 481917982#16 481917080#8 481917080#9 481917080#10 481917080#11 481917080#12 481917080#13 481917080#14 481917080#15 481917080#16 481917080#17 481917080#18 481917080#19 481917080#20 481917080#21 481917080#22 481917080#23 481917080#24 481917080#25 481917080#26 481917080#27 481917080#28 481917080#29 481917080#30 481917080#31 481917080#32 481917080#33 481917080#34 481917080#35 481917083 583351641#4 583351641#5 583351636 887457402#0 -329310351#17 -329310351#16 -329310351#15 -329310351#14 -329310351#13 -329310351#12 -329310351#11 -329310351#10 -329310351#9 -329310351#8 -329310351#7 -329310351#6 -329310351#5 -329310351#4 -329310351#3 885492743 885482881#5 885482881#6"/>
    </vehicle>
    <vehicle id="20" depart="20.00">
        <route edges="886064360#10 886064360#11 886064360#12 886064360#13 886064360#14 364543156#0 364543156#1 364543156#2 886134926#0 886134926#1 886134926#2 886134926#3 364543148#0 364543148#1 364543148#2 364543148#3 364543148#4 364660350 364660351 -365146272#2 -365146272#1 -365146272#0"/>
    </vehicle>
    <vehicle id="23" depart="23.00">
        <route edges="-730145766#1 -730145766#0 730145766#0 730145766#1 730145766#2 730145766#3 730145766#4 730145766#5 730145766#6 730145766#7 730145766#8 730145766#9 730145766#10 886075366#10 886075366#11 886075366#12 886075366#13 886075366#14 886075366#15 -364543140#1 -364543140#0 886064360#1 886064360#2 -481914139#40 -481914139#39 -481914139#38 -481914139#37 -481914139#36 -481914139#35 -481914139#34 -481914139#33 -481914139#32 -481914139#31 -481914139#30 -481914139#29 -481914139#28 -481914139#27 -481914139#26 -481914139#25 -481914139#24 -481914139#23 -481914139#22 -481914139#21 -481914139#20 -481914139#19 -481914139#18 -481914139#17 -481914139#16 -887523762"/>
    </vehicle>
    <vehicle id="24" depart="24.00">
        <route edges="731071111#3 647134309 647119905#0 647119905#1 647119905#2 -647119905#2 -647119905#1 -647119905#0 -647134309 -731071111#3 -731071111#2 -731071111#1 -731071111#0 90851902#1 90851902#2 364543158#0 364543158#1 364543158#2 364543158#3 364543158#4 364543158#5 364543158#6 364543158#7 364543158#8 364543158#9 -481917979#0 -481917978#6 887886307 -887886307"/>
    </vehicle>
    <vehicle id="26" depart="26.00">
        <route edges="-887522654#2 887522646 887522652#1 887522652#2 887522652#3 887522652#4 887522652#5 887522652#6 -810901712#0 -810901507#4 -885842730#5 -885842730#4 -885842730#3 -885842730#2 -885842730#1 -885842730#0 -885846576 -885846573#1 885846572 -364543146#13 -364543146#12 -364543146#11 885846555#0 885846555#1 885846555#2 -885846554#14 -885846554#13 -885846554#12 -885846554#11 -885846554#10 888086220 -888086212#0 -888086223#1 888086222"/>
    </vehicle>
    <vehicle id="27" depart="27.00">
        <route edges="885482883#1 -885482882#1 -885482882#0 329310351#9 329310351#10 329310351#11 329310351#12 329310351#13 329310351#14 329310351#15 329310351#16 887457399#5 887457399#6 90852019 90851902#0 90851902#1 90851902#2 364543158#0 364543158#1 364543158#2 364543158#3 364543158#4 364543158#5 364543158#6 364543158#7 364543158#8 364543158#9 364543158#10 364543158#11 364543158#12 364543158#13 364543158#14 364543158#15 364543158#16 364543158#17 364543158#18 364543158#19 364543158#20 364543158#21 364543158#22 364543158#23 364543158#24 364543158#25 -887879028#2 -887879028#1 -887879028#0 364543154 364543146#0 364543146#1 364543146#2 364543146#3 364543146#4 364543146#5 364543146#6 364543146#7 364543146#8 364543146#9 364543146#10 364543146#11 364543146#12 -885846552 885846573#0 885846573#1 885846576 885842730#0 885842730#1 885842730#2 885842730#3 885842728#0 885842733#2 885842733#3 810901507#7"/>
    </vehicle>
    <vehicle id="31" depart="31.00">
        <route edges="481917080#21 481917080#22 888147815#0 364543158#5 364543158#6 364543158#7 364543158#8 364543158#9 364543158#10 364543158#11 364543158#12 364543158#13 364543158#14 364543158#15 364543158#16 364543158#17 364543158#18 364543158#19 364543158#20 364543158#21 364543158#22 364543158#23 364543158#24 364543158#25 -887879028#2 -887879028#1 -887879028#0 364543154 364543146#0 364543146#1 364543146#2 364543146#3 364543146#4 364543146#5 364543146#6 364543146#7 364543146#8 364543146#9 364543146#10 364543146#11 364543146#12 364543146#13 364543146#14 886064359#0 886064359#1 886064359#2 886064360#0 886064360#1 886064360#2 886064360#3 886064360#4 886064360#5 886064360#6 886064360#7 886064360#8 886064360#9 886064360#10 886064360#11 886064360#12 886064360#13 886064360#14"/>
    </vehicle>
    <vehicle id="32" depart="32.00">
        <route edges="887719935#8 -887719935#8 887728597#0 887728597#1 887728596#2 887493013#7 887493013#8 887493012#0 887493012#1 887480144#5 887480144#6"/>
    </vehicle>
    <vehicle id="34" depart="34.00">
        <route edges="-887728600#2 -887888201 -887719936#1 -887719936#0 -887719937#1 -887719937#0 -481917978#4 -481917978#3 -481917978#2 364543158#11 364543158#12 364543158#13 364543158#14 364543158#15 364543158#16 364543158#17 364543158#18 364543158#19 364543158#20 364543158#21 364543158#22 364543158#23 364543158#24 364543158#25 -887879028#2 -887879028#1 -887879028#0 364543154 364543146#0 -481927333#2 -481927333#1 -481927333#0 -481914139#10 -481914139#9 -481914139#8 -481914139#7 -887513254 -887513255 -810901712#14 -810901712#13 -810901712#12 -810901712#11 -887520537"/>
    </vehicle>
    <vehicle id="36" depart="36.00">
        <route edges="887753353#0 887753353#1 887753353#2 583351647#2 583351647#3 583351647#4 583351647#5 583351639 583351641#0 583351641#1 364543158#1 364543158#2 364543158#3 364543158#4 -888147815#0 481917080#23 887493013#0 887493013#1 887493013#2 887493013#3 887493013#4 887493013#5 887493013#6 -887728596#2 -887728597#1 -887728597#0"/>
    </vehicle>
    <vehicle id="37" depart="37.00">
        <route edges="885828854#8 885828854#9 885828854#10 885828854#11 886075365#2 886075365#3 886075365#4 885849874#0 885849874#1 885849874#2 885849874#3 885849874#4 885849874#5 885846559#5 885849863#0 885849863#1 885849863#2 885849863#3 888076655#0 888076655#1 888076655#2 888076655#3 888076655#4 888076655#5 -888076655#5"/>
    </vehicle>
    <vehicle id="40" depart="40.00">
        <route edges="481917080#35 481917080#36 481917080#37 90851902#2 364543158#0 364543158#1 364543158#2 364543158#3 364543158#4 364543158#5 364543158#6 364543158#7 364543158#8 364543158#9 364543158#10 364543158#11 364543158#12 364543158#13 364543158#14 364543158#15 364543158#16 364543158#17 364543158#18 364543158#19 364543158#20 364543158#21 364543158#22 364543158#23 364543158#24 364543158#25 -887879028#2 -887879028#1 -887879028#0 364543154 364543146#0 -481927333#2 -481927333#1 -481927333#0 481914139#11 887513253#0 887513253#1 887513253#2 887513253#3 887513253#4 -887513251 -887513252#1"/>
    </vehicle>
    <vehicle id="44" depart="44.00">
        <route edges="-681456042 -647119905#3 -647119905#2 -647119905#1 -647119905#0 -647134309 -731071111#3 -731071111#2 -731071111#1 -731071111#0 90851902#1 90851902#2 364543158#0 364543158#1 364543158#2 364543158#3 364543158#4 364543158#5 364543158#6 364543158#7 364543158#8 364543158#9 364543158#10 364543158#11 364543158#12 364543158#13 364543158#14 364543158#15 364543158#16 364543158#17 364543158#18 364543158#19 364543158#20 364543158#21 364543158#22 364543158#23 364543158#24 364543158#25 -887879028#2 -887879028#1 -887879028#0 364543154 364543146#0 364543146#1 364543146#2 364543146#3 364543146#4 364543146#5 364543146#6 364543146#7 364543146#8 364543146#9 364543146#10 364543146#11 364543146#12 364543146#13 364543146#14 886064359#0 886064359#1 886064359#2 886064360#0 886064360#1 886064360#2 886064360#3 886064360#4 886064360#5 886064360#6 886064360#7 886064360#8 886064360#9 886064360#10 886064360#11 886064360#12 886064360#13 886064360#14 364543156#0 364543156#1 364543156#2 886134926#0 886134926#1 886134926#2 886134926#3 364543148#0 364543148#1 364543148#2 364543148#3 364543148#4 364660350 364660351 -365146272#2 -365146272#1 -365146272#0"/>
    </vehicle>
    <vehicle id="45" depart="45.00">
        <route edges="-810901507#7 -885842733#3 -885842733#2 -885842728#0 -885842730#3 -885842730#2 -885842730#1 -885842730#0 -885846576 -885846573#1 885846572 -364543146#13 -364543146#12 -364543146#11 -364543146#10 -364543146#9 -364543146#8 -364543146#7 -364543146#6 -364543146#5 -364543146#4 -364543146#3 -364543146#2 -364543146#1 -364543146#0 -364543154 887879028#0 887879028#1 887879028#2 481917080#0 481917080#1 481917080#2 481917080#3 481917080#4 481917080#5 481917080#6 481917080#7 481917080#8 481917080#9 481917080#10 481917080#11 481917080#12 481917080#13 481917080#14 481917080#15 481917080#16 481917080#17 481917080#18 481917080#19 481917080#20 481917080#21 481917080#22 481917080#23 481917080#24 481917080#25 481917080#26 481917080#27 481917080#28 481917080#29 481917080#30 481917080#31 481917080#32 481917080#33 481917080#34 481917080#35 481917083 583351641#4 583351641#5 583351636 887457402#0 -329310351#17 -329310351#16 -329310351#15 -329310351#14 -329310351#13 -329310351#12 -329310351#11 -329310351#10 -329310351#9 -329310351#8 -329310351#7 -329310351#6 -329310351#5 -329310351#4 -329310351#3 -329310351#2 885740808"/>
    </vehicle>
    <vehicle id="46" depart="46.00">
        <route edges="887480144#1 -887480144#1 -887480144#0 -887493013#7 -887728596#2 -887728597#1 -887728597#0 -887719935#7 -887719935#6 -887719935#5 -887719935#4 -887719935#3 -887724773 -887719937#3 -887719937#2 -887719937#1 -887719937#0 -481917978#4 -481917978#3 -481917978#2 364543158#11 364543158#12 364543158#13 364543158#14 364543158#15 364543158#16 364543158#17 364543158#18 364543158#19 364543158#20 364543158#21 364543158#22 364543158#23 364543158#24 364543158#25 -887879028#2 -887879028#1 -887879028#0 364543154 364543146#0 364543146#1 364543146#2 364543146#3 364543146#4 364543146#5 364543146#6 364543146#7 364543146#8 364543146#9 364543146#10 364543146#11 364543146#12 364543146#13 364543146#14 886064359#0 886064359#1 886064359#2 886064360#0 364543140#0 364543140#1 886075365#0 886075365#1 886075365#2 886075365#3 886075365#4 886075365#5 886075365#6 886075365#7 886075365#8 886075365#9 886075365#10 886075365#11 886075365#12 886075365#13 886075365#14 886075365#15 886075365#16 886075365#17 886075365#18 886075365#19 886075365#20 886075365#21 886075365#22 887768417#1 887768417#2 887768417#3 888103062 -888103064#0"/>
    </vehicle>
    <vehicle id="49" depart="49.00">
        <route edges="888147800#1 888147800#2 -888147799#3 -888147800#0 364543158#8 364543158#9 364543158#10 364543158#11 364543158#12 364543158#13 364543158#14 -481917982#17 -481917982#16 -481917982#15 -481917982#14 -481917982#13 -481917982#12 -481917982#11 887752201#0 887752200#0 887752200#1 887752200#2 887752200#3 887752197#0 887752197#1 -887752198#2 887752196#1"/>
    </vehicle>
    <vehicle id="51" depart="51.00">
        <route edges="885846557#5 -364543146#7 -364543146#6 -364543146#5 -364543146#4 -364543146#3 -364543146#2 -364543146#1 -364543146#0 -364543154 887879028#0 887879028#1 887879028#2 481917080#0 481917982#1 481917982#2 481920147#0 481920147#1"/>
    </vehicle>
    <vehicle id="52" depart="52.00">
        <route edges="-887522654#2 887522646 887522652#1 887522652#2 887522652#3 887522652#4 887522652#5 887522652#6 -810901712#0 -810901507#4 -885842730#5 -885842730#4 -885842730#3 -885842730#2 -885839329#6 -885839329#5 -885839329#4 885839327#0 885839331#0 885839331#1 481914139#33 481914139#34 481914139#35 481914139#36 481914139#37 481914139#38 481914139#39 481914139#40 -886064360#2 -886064360#1 364543140#0 364543140#1 886075365#0 886075365#1 -885828854#11 -885828854#10 -885835959#4 -885835959#3 885835964"/>
    </vehicle>
    <vehicle id="53" depart="53.00">
        <route edges="-810901712#12 -887520539 887520540#5 810901712#14 887513255 887513254 481914139#7 481914139#8 481914139#9 481914139#10 481927333#0 481927333#1 481927333#2 -364543146#0 -364543154 887879028#0 887879028#1 887879028#2 481917080#0 481917080#1 481917080#2 481917080#3 481917080#4 481917080#5 481917080#6 481917080#7 481917080#8 481917080#9 481917080#10 481917080#11 481917080#12 481917080#13 481917080#14 481917080#15 481917080#16 481917080#17 481917080#18 481917080#19 481917080#20 481917080#21 481917080#22 888147815#0 888147815#1 -888147815#1"/>
    </vehicle>
    <vehicle id="55" depart="55.00">
        <route edges="887753353#0 887753353#1 887753353#2 583351647#2 583351647#3 583351647#4 583351647#5 583351639 583351641#0 583351641#1 364543158#1 364543158#2 364543158#3 364543158#4 364543158#5 364543158#6 364543158#7 364543158#8 364543158#9 364543158#10 364543158#11 364543158#12 364543158#13 364543158#14 364543158#15 364543158#16 364543158#17 364543158#18 364543158#19 364543158#20 364543158#21 364543158#22 364543158#23 364543158#24 364543158#25 -887879028#2 -887879028#1 -887879028#0 364543154 364543146#0 -481927333#2 -481927333#1 -481927333#0 481914139#11 887513253#0 -887520548#1 -887520548#0 -887513253#2"/>
    </vehicle>
    <vehicle id="56" depart="56.00">
        <route edges="364543158#2 364543158#3 364543158#4 364543158#5 364543158#6 364543158#7 364543158#8 364543158#9 364543158#10 364543158#11 364543158#12 364543158#13 364543158#14 364543158#15 364543158#16 364543158#17 364543158#18 364543158#19 364543158#20 364543158#21 364543158#22 364543158#23 364543158#24 364543158#25 -887879028#2 -887879028#1 -887879028#0 364543154 364543146#0 364543146#1 364543146#2 364543146#3 364543146#4 885846568#0 885846568#1 -885846554#12 -885846558#4 -885846558#3"/>
    </vehicle>
    <vehicle id="58" depart="58.00">
        <route edges="-887719935#7 -887719935#6 -887719935#5 -887719935#4 -887719935#3 -887724773 -887719937#3 -887719937#2 -887719937#1 -887719937#0 -481917978#4 -481917978#3 -481917978#2 364543158#11 364543158#12 364543158#13 364543158#14 364543158#15 364543158#16 364543158#17 364543158#18 364543158#19 364543158#20 364543158#21 364543158#22 364543158#23 364543158#24 364543158#25 -887879028#2 -887879028#1 -887879028#0 364543154 364543146#0 364543146#1 364543146#2 364543146#3 364543146#4 364543146#5 364543146#6 364543146#7 364543146#8 364543146#9 364543146#10 364543146#11 364543146#12 364543146#13 364543146#14 886064359#0 886064359#1 886064359#2 886064360#0 364543140#0 364543140#1 886075365#0 886075365#1 -885828854#11 -885828854#10 -885835959#4 -885835959#3 885835959#3"/>
    </vehicle>
    <vehicle id="59" depart="59.00">
        <route edges="583351647#0 583351647#1 583351647#2 583351647#3 583351647#4 583351647#5 583351639 583351641#0 583351641#1 364543158#1 364543158#2 364543158#3 364543158#4 364543158#5 364543158#6 364543158#7 364543158#8 364543158#9 364543158#10 364543158#11 364543158#12 364543158#13 364543158#14 364543158#15 364543158#16 364543158#17 364543158#18 364543158#19 364543158#20 364543158#21 364543158#22 364543158#23 364543158#24 364543158#25 -887879028#2 -887879028#1 -887879028#0 364543154 364543146#0 364543146#1 364543146#2 364543146#3 364543146#4 364543146#5 364543146#6 364543146#7 364543146#8 364543146#9 364543146#10 364543146#11 364543146#12 364543146#13 364543146#14 886064359#0 886064359#1 886064359#2 886064360#0 364543140#0 364543140#1 886075365#0 886075365#1 -885828854#11 -885828854#10 -885828854#9 -885828854#8"/>
    </vehicle>
    <vehicle id="60" depart="60.00">
        <route edges="887457399#6 90852019 90851902#0 90851902#1 90851902#2 364543158#0 364543158#1 364543158#2 364543158#3 364543158#4 364543158#5 364543158#6 364543158#7 364543158#8 364543158#9 364543158#10 364543158#11 364543158#12 364543158#13 364543158#14 -481917982#17 -481917982#16 -481917983#6 -481917983#5 -481917983#4 -481920149#2 -481920149#1 -481920149#0 481920149#0"/>
    </vehicle>
    <vehicle id="63" depart="63.00">
        <route edges="-364543148#4 -364543148#3 -364543148#2 -364543148#1 -364543148#0 -886134926#3 -886134926#2 -886134926#1 -886134926#0 -364543156#2 -364543156#1 -364543156#0 -886064360#14 -886064360#13 -886064360#12 -886064360#11 -886064360#10 -886064360#9 -886064360#8 -886064360#7 -886064360#6 -886064360#5 -886064360#4 -886064360#3 -886064360#2 -886064360#1 -886064360#0 886064361#0 886064361#1 886064361#2 886064361#3 886064361#4 886064361#5 886064361#6 -364543146#14 -364543146#13 -364543146#12 -364543146#11 885846555#0 885846555#1 885846555#2 -885846554#14 -885846554#13 -885846554#12 -885846558#4 -885846558#3 -885846558#2 -885846558#1 -885846558#0 888076649#1 888078302#0"/>
    </vehicle>
    <vehicle id="64" depart="64.00">
        <route edges="887753353#2 583351647#2 583351647#3 583351647#4 583351647#5 583351639 583351641#0 583351641#1 364543158#1 364543158#2 364543158#3 364543158#4 364543158#5 364543158#6 364543158#7 364543158#8 364543158#9 -481917979#0 -481917978#6 -481917978#5 887719937#0 887719937#1 887719937#2 887719937#3 887724773 887719935#3 887719935#4 887719935#5 887719935#6"/>
    </vehicle>
    <vehicle id="65" depart="65.00">
        <route edges="-887724769#2 -887724770#2 -887724770#1 -887724770#0 -887724771#5 -887724771#4 -887724771#3 -887886307 481917978#6 481917979#0 364543158#10 364543158#11 364543158#12 364543158#13 364543158#14 364543158#15 364543158#16 364543158#17 364543158#18 364543158#19 364543158#20 364543158#21 364543158#22 364543158#23 364543158#24 364543158#25 -887879028#2 -887879028#1 -887879028#0 364543154 364543146#0 364543146#1 364543146#2 364543146#3 364543146#4 364543146#5 364543146#6 364543146#7 364543146#8 364543146#9 364543146#10 364543146#11 364543146#12 364543146#13 364543146#14 886064359#0 886064359#1 886064359#2 886064360#0 886064360#1 886064360#2 886064360#3 886064360#4 886064360#5 886064360#6 886064360#7 886064360#8 886064360#9 886064360#10 886064360#11 886064360#12 886064360#13 886064360#14 364543156#0 364543156#1 364543156#2 886134926#0 886134926#1 886134926#2 886134926#3 364543148#0 364543148#1 364543148#2 364543148#3 364543148#4 364660350 364660351 -365146272#2 -365146272#1 -365146272#0"/>
    </vehicle>
    <vehicle id="66" depart="66.00">
        <route edges="887753353#2 583351647#2 583351647#3 583351647#4 583351647#5 583351639 583351641#0 583351641#1 364543158#1 364543158#2 364543158#3 364543158#4 364543158#5 364543158#6 364543158#7 364543158#8 364543158#9 364543158#10 364543158#11 364543158#12 364543158#13 364543158#14 364543158#15 364543158#16 364543158#17 364543158#18 364543158#19 364543158#20 364543158#21 364543158#22 364543158#23 364543158#24 364543158#25 -887879028#2 -887879028#1 -887879028#0 364543154 364543146#0 364543146#1 364543146#2 364543146#3 364543146#4 364543146#5 364543146#6 364543146#7 364543146#8 364543146#9 364543146#10 364543146#11 364543146#12 364543146#13 364543146#14 886064359#0 886064359#1 886064359#2 886064360#0 364543140#0 364543140#1 886075365#0 886075365#1 886075365#2 886075365#3 886075365#4 886075365#5 886075365#6 886075365#7 886075365#8 886075365#9 886075365#10 886075365#11 886075365#12 886075365#13 886075365#14 886075365#15 886075365#16 888094994#1 888094994#2 888094983#1 888094983#2 888094983#3 888094983#4 888094983#5 888094983#6"/>
    </vehicle>
    <vehicle id="67" depart="67.00">
        <route edges="-647119905#2 -647119905#1 -647119905#0 -647134309 -731071111#3 -731071111#2 -731071111#1 -731071111#0 90851902#1 90851902#2 364543158#0 364543158#1 364543158#2 364543158#3 364543158#4 364543158#5 364543158#6 364543158#7 364543158#8 364543158#9 364543158#10 364543158#11 364543158#12 364543158#13"/>
    </vehicle>
    <vehicle id="69" depart="69.00">
        <route edges="887457402#0 -329310351#17 887457399#5 887457399#6 90852019 90851902#0 90851902#1 90851902#2 364543158#0 364543158#1 364543158#2 364543158#3 364543158#4 364543158#5 364543158#6 364543158#7 364543158#8 364543158#9 364543158#10 364543158#11 364543158#12 364543158#13 364543158#14 364543158#15 364543158#16 364543158#17 364543158#18 364543158#19 364543158#20 364543158#21 364543158#22 364543158#23 364543158#24 364543158#25 -887879028#2 -887879028#1 -887879028#0 364543154 364543146#0 364543146#1 364543146#2 364543146#3 364543146#4 364543146#5 364543146#6 364543146#7 364543146#8 364543146#9 364543146#10 364543146#11 364543146#12 364543146#13 364543146#14 886064359#0 886064359#1 886064359#2 886064360#0 364543140#0 364543140#1 886075365#0 886075365#1 886075365#2 886075365#3 886075365#4 886075365#5 886075365#6 886075365#7 -730145766#11 -730145766#10"/>
    </vehicle>
    <vehicle id="70" depart="70.00">
        <route edges="364543146#5 364543146#6 364543146#7 364543146#8 364543146#9 364543146#10 364543146#11 364543146#12 -885846552 885846571 481927329#1"/>
    </vehicle>
    <vehicle id="71" depart="71.00">