<?xml version="1.0" encoding="UTF-8"?>

<!-- generated on 2024-11-06 19:26:06.719765 by randomTrips.py v1_21_0+0000-d7b3b481c43
<configuration>
    <net-file value="kalaghoda.net.xml"/>
    <route-file value="kalaghoda.rou.xml"/>
    <length value="True"/>
    <end value="100.0"/>
</configuration>
-->

<!-- generated on 2024-11-06 19:26:06 by Eclipse SUMO duarouter Version 1.21.0
<duarouterConfiguration xmlns:xsi="http://www.w3.org/2001/XMLSchema-instance" xsi:noNamespaceSchemaLocation="http://sumo.dlr.de/xsd/duarouterConfiguration.xsd">

    <input>
        <net-file value="kalaghoda.net.xml"/>
        <route-files value="trips.trips.xml"/>
    </input>

    <output>
        <output-file value="kalaghoda.rou.xml"/>
        <alternatives-output value="NUL"/>
    </output>

    <time>
        <begin value="0"/>
        <end value="100.0"/>
    </time>

    <report>
        <no-warnings value="true"/>
        <ignore-errors value="true"/>
        <no-step-log value="true"/>
    </report>

</duarouterConfiguration>
-->

<routes xmlns:xsi="http://www.w3.org/2001/XMLSchema-instance" xsi:noNamespaceSchemaLocation="http://sumo.dlr.de/xsd/routes_file.xsd">
    <vehicle id="0" depart="0.00">
        <route edges="22846142#1 1235213735#1 1237732052 1235236196 1235236195 1235236194 1237752424 22846047 1235236193 1235213735#0 -22846142#1 -22846142#0"/>
    </vehicle>
    <vehicle id="2" depart="2.00">
        <route edges="40289022#1 40289022#2 40289022#3 40289022#4 1136698219#3 1136698219#4 1136940512 1235236195 1235236194 1237752424 22846047 1235236193 1235213735#0 1235213735#1 236180641#0"/>
    </vehicle>
    <vehicle id="3" depart="3.00">
        <route edges="49480585#0 49480585#1 1235213735#0 -22846142#1"/>
    </vehicle>
    <vehicle id="4" depart="4.00">
        <route edges="206346653#3 206346655#0 206346655#1 206346655#2 1237752424 22846047 1235236193 1235213735#0 -22846142#1 -22846142#0"/>
    </vehicle>
    <vehicle id="5" depart="5.00">
        <route edges="1136698219#0 1136698219#1 407953902#0 407953902#1 407953902#2 206346653#3 206346654"/>
    </vehicle>
    <vehicle id="7" depart="7.00">
        <route edges="235872051 1235236193 1235213735#0 1235213735#1 1237732052 1235236196 1235236195 206346653#0 206346653#1 206346653#2 407953902#3 206346655#1"/>
    </vehicle>
    <vehicle id="8" depart="8.00">
        <route edges="1136698219#0 1136698219#1 1136698219#2 1136698219#3 1136698219#4 1136940512 1235236195 1235236194 1237752424 22846047 1235236193 1235213735#0 -22846142#1 -22846142#0 22846142#0 22846142#1"/>
    </vehicle>
    <vehicle id="9" depart="9.00">
        <route edges="407953902#1 407953902#2 407953902#3 206346655#1 206346655#2 1237752424 22846047 1235236193 1235213735#0 -22846142#1 -22846142#0"/>
    </vehicle>
    <vehicle id="10" depart="10.00">
        <route edges="407953902#0 407953902#1 407953902#2 407953902#3 206346655#1 206346655#2 1237752424 22846047 1235236193 1235213735#0 1235213735#1 236180641#0"/>
    </vehicle>
    <vehicle id="12" depart="12.00">
        <route edges="49480585#1 1235213735#0 1235213735#1 1237732052 1239646044 130535598#0"/>
    </vehicle>
    <vehicle id="13" depart="13.00">
        <route edges="-22846142#1"/>
    </vehicle>
    <vehicle id="14" depart="14.00">
        <route edges="49480585#0 49480585#1 1235213735#0 -22846142#1 -22846142#0 22846142#0 22846142#1"/>
    </vehicle>
    <vehicle id="15" depart="15.00">
        <route edges="407953902#0 407953902#1 407953902#2 407953902#3 206346655#1 206346655#2 1237752424 22846047 1235236193 1235213735#0 1235213735#1 236180641#0 236180641#1"/>
    </vehicle>
    <vehicle id="17" depart="17.00">
        <route edges="206346653#0 206346653#1 206346653#2 407953902#3 206346655#1 206346655#2"/>
    </vehicle>
    <vehicle id="18" depart="18.00">
        <route edges="407953902#2 407953902#3 206346655#1 206346655#2 1237752424 22846047 1235236193 1235213735#0 -22846142#1 -22846142#0 22846142#0 22846142#1"/>
    </vehicle>
    <vehicle id="19" depart="19.00">
        <route edges="49480585#0 49480585#1 1235213735#0 -22846142#1 -22846142#0 22846142#0 22846142#1"/>
    </vehicle>
    <vehicle id="21" depart="21.00">
        <route edges="1136698219#1 1136698219#2 1136698219#3"/>
    </vehicle>
    <vehicle id="23" depart="23.00">
        <route edges="-22846142#1 -22846142#0 22846142#0 22846142#1 1235213735#1 1237732052 1235236196 1235236195 206346653#0 206346653#1 40289022#1 40289022#2 40289022#3 40289022#4 1136698219#3"/>
    </vehicle>
    <vehicle id="24" depart="24.00">
        <route edges="22846142#1 1235213735#1 1237732052 1239646044 130535598#0 130535598#1"/>
    </vehicle>
    <vehicle id="27" depart="27.00">
        <route edges="235872051 1235236193 1235213735#0 -22846142#1 -22846142#0 22846142#0 22846142#1"/>
    </vehicle>
    <vehicle id="28" depart="28.00">
        <route edges="1136697416#1 1239646045 1235236196 1235236195 1235236194 1237752424 22846047 1235236193 1235213735#0 1235213735#1 236180641#0 236180641#1"/>
    </vehicle>
    <vehicle id="29" depart="29.00">
        <route edges="1136697416#1 1239646045 1239646044 130535598#0 130535598#1 130535598#2"/>
    </vehicle>
    <vehicle id="31" depart="31.00">
        <route edges="22846142#0 22846142#1 1235213735#1 236180641#0"/>
    </vehicle>
    <vehicle id="32" depart="32.00">
        <route edges="49480585#0 49480585#1 1235213735#0 1235213735#1 1237732052 1235236196 1235236195 206346653#0 206346653#1 40289022#1 40289022#2 40289022#3 40289022#4"/>
    </vehicle>
    <vehicle id="33" depart="33.00">
        <route edges="1136698219#1 1136698219#2 1136698219#3 1136698219#4 1136940512 1235236195 1235236194 1237752424 22846047 1235236193 1235213735#0 -22846142#1 -22846142#0"/>
    </vehicle>
    <vehicle id="34" depart="34.00">
        <route edges="1136940512 1235236195 206346653#0 206346653#1 40289022#1 40289022#2 40289022#3 40289022#4 1136698219#3"/>
    </vehicle>
    <vehicle id="36" depart="36.00">
        <route edges="49480585#0 49480585#1 1235213735#0 1235213735#1 1237732052 1235236196 1235236195 1235236194 1237752424 22846047 1241028623"/>
    </vehicle>
    <vehicle id="37" depart="37.00">
        <route edges="235872051 1235236193 1235213735#0 1235213735#1 1237732052 1235236196 1235236195 206346653#0"/>
    </vehicle>
    <vehicle id="38" depart="38.00">
        <route edges="49480585#1 1235213735#0 1235213735#1 1237732052 1235236196 1235236195 206346653#0 206346653#1 206346653#2 206346653#3 206346654"/>
    </vehicle>
    <vehicle id="39" depart="39.00">
        <route edges="1136698219#1 1136698219#2"/>
    </vehicle>
    <vehicle id="44" depart="44.00">
        <route edges="-22846142#1 -22846142#0"/>
    </vehicle>
    <vehicle id="45" depart="45.00">
        <route edges="-22846142#1 -22846142#0 22846142#0 22846142#1"/>
    </vehicle>
    <vehicle id="46" depart="46.00">
        <route edges="407953902#0 407953902#1 407953902#2 407953902#3 206346655#1 206346655#2 1237752424 22846047 1235236193 1235213735#0 1235213735#1 1237732052 1235236196 1235236195 206346653#0 206346653#1"/>
    </vehicle>
    <vehicle id="47" depart="47.00">
        <route edges="-22846142#1 -22846142#0 22846142#0 22846142#1 1235213735#1 1237732052 1239646044 130535598#0 130535598#1 130535598#2"/>
    </vehicle>
    <vehicle id="50" depart="50.00">
        <route edges="-206346654 206346655#0 206346655#1 206346655#2 1237752424 22846047 1235236193 1235213735#0 1235213735#1 236180641#0 236180641#1"/>
    </vehicle>
    <vehicle id="52" depart="52.00">
        <route edges="1136698219#2 1136698219#3 1136698219#4 1136940512 1235236195 1235236194 1237752424 22846047 1235236193 1235213735#0 -22846142#1 -22846142#0 22846142#0 22846142#1"/>
    </vehicle>
    <vehicle id="53" depart="53.00">
        <route edges="-22846142#1 -22846142#0 22846142#0 22846142#1 1235213735#1 1237732052 1235236196 1235236195 206346653#0 206346653#1 206346653#2 206346653#3"/>
    </vehicle>
    <vehicle id="55" depart="55.00">
        <route edges="49480585#0 49480585#1 1235213735#0 1235213735#1 1237732052 1235236196 1235236195 206346653#0 206346653#1 40289022#1 40289022#2 40289022#3 40289022#4 1136698219#3"/>
    </vehicle>
    <vehicle id="58" depart="58.00">
        <route edges="1136698219#3 1136698219#4 1136940512 1235236195 1235236194 1237752424 22846047 1235236193 1235213735#0 -22846142#1 -22846142#0 22846142#0 22846142#1"/>
    </vehicle>
    <vehicle id="59" depart="59.00">
        <route edges="22846142#1 1235213735#1 1237732052 1235236196 1235236195 1235236194 1237752424 22846047 1235236193 1235213735#0 -22846142#1"/>
    </vehicle>
    <vehicle id="60" depart="60.00">
        <route edges="40289022#4 1136698219#3 1136698219#4 1136940512 1235236195 206346653#0 206346653#1 206346653#2 407953902#3 206346655#1"/>
    </vehicle>
    <vehicle id="61" depart="61.00">
        <route edges="40289022#4 1136698219#3 1136698219#4 1136940512 1235236195 206346653#0 206346653#1 206346653#2 407953902#3 206346655#1"/>
    </vehicle>
    <vehicle id="62" depart="62.00">
        <route edges="-206346654 206346655#0 206346655#1 206346655#2 1237752424 22846047 1241028623"/>
    </vehicle>
    <vehicle id="64" depart="64.00">
        <route edges="49480585#0 49480585#1 1235213735#0 1235213735#1 1237732052 1235236196 1235236195 1235236194 1237752424 40433567"/>
    </vehicle>
    <vehicle id="65" depart="65.00">
        <route edges="1136698219#4 1136940512 1235236195 1235236194 1237752424 22846047 1235236193 1235213735#0 -22846142#1 -22846142#0"/>
    </vehicle>
    <vehicle id="66" depart="66.00">
        <route edges="49480585#0 49480585#1"/>
    </vehicle>
    <vehicle id="67" depart="67.00">
        <route edges="-22846142#1 -22846142#0 22846142#0 22846142#1 1235213735#1 1237732052 1235236196 1235236195 206346653#0 206346653#1 206346653#2 206346653#3 206346654"/>
    </vehicle>
    <vehicle id="68" depart="68.00">
        <route edges="-22846142#1 -22846142#0 22846142#0 22846142#1 1235213735#1 1237732052 1235236196 1235236195 206346653#0 206346653#1 40289022#1 40289022#2 40289022#3"/>
    </vehicle>
    <vehicle id="69" depart="69.00">
        <route edges="40289022#4 1136698219#3 1136698219#4 1136940512 1235236195 1235236194 1237752424 22846047 1235236193 1235213735#0 -22846142#1"/>
    </vehicle>
    <vehicle id="70" depart="70.00">
        <route edges="206346655#2"/>
    </vehicle>
    <vehicle id="71" depart="71.00">
        <route edges="1136698219#1 407953902#0"/>
    </vehicle>
    <vehicle id="73" depart="73.00">
        <route edges="22846142#0 22846142#1 1235213735#1 236180641#0 236180641#1"/>
    </vehicle>
    <vehicle id="76" depart="76.00">
        <route edges="206346655#0"/>
    </vehicle>
    <vehicle id="79" depart="79.00">
        <route edges="1136698219#1"/>
    </vehicle>
    <vehicle id="80" depart="80.00">
        <route edges="-22846142#1 -22846142#0 22846142#0 22846142#1"/>
    </vehicle>
    <vehicle id="81" depart="81.00">
        <route edges="1136698219#1 407953902#0 407953902#1 407953902#2"/>
    </vehicle>
    <vehicle id="82" depart="82.00">
        <route edges="49480585#0 49480585#1 1235213735#0 -22846142#1 -22846142#0"/>
    </vehicle>
    <vehicle id="83" depart="83.00">
        <route edges="1136698219#1 1136698219#2 1136698219#3 1136698219#4 1136940512 1235236195 1235236194 1237752424 22846047 1235236193 1235213735#0 1235213735#1 236180641#0"/>
    </vehicle>
    <vehicle id="84" depart="84.00">
        <route edges="1136698219#0 1136698219#1 1136698219#2 1136698219#3 1136698219#4 1136940512 1235236195 1235236194 1237752424 22846047 1235236193 1235213735#0 -22846142#1"/>
    </vehicle>
    <vehicle id="85" depart="85.00">
        <route edges="49480585#1 1235213735#0 -22846142#1 -22846142#0 22846142#0 22846142#1"/>
    </vehicle>
    <vehicle id="86" depart="86.00">
        <route edges="206346655#2 1237752424 22846047 1235236193 1235213735#0 1235213735#1 1237732052 1235236196 1235236195 206346653#0 206346653#1 40289022#1 40289022#2 40289022#3 40289022#4"/>
    </vehicle>
    <vehicle id="88" depart="88.00">
        <route edges="-22846142#1 -22846142#0 22846142#0 22846142#1 1235213735#1 1237732052 1235236196 1235236195 206346653#0 206346653#1 206346653#2 206346653#3"/>
    </vehicle>
    <vehicle id="89" depart="89.00">
        <route edges="206346655#0 40289022#0 206346653#2 206346653#3 206346654"/>
    </vehicle>
    <vehicle id="90" depart="90.00">
        <route edges="40289022#1 40289022#2 40289022#3 40289022#4 1136698219#3 1136698219#4 1136940512 1235236195 1235236194 1237752424 22846047 1235236193 1235213735#0 1235213735#1 236180641#0"/>
    </vehicle>
    <vehicle id="92" depart="92.00">
        <route edges="206346653#1 206346653#2 407953902#3 206346655#1 206346655#2 1237752424 22846047 1235236193 1235213735#0 1235213735#1 1237732052 1239646044 130535598#0"/>
    </vehicle>
    <vehicle id="94" depart="94.00">
        <route edges="1136698219#0 1136698219#1 407953902#0 407953902#1 407953902#2 206346653#3 206346654"/>
    </vehicle>
    <vehicle id="95" depart="95.00">
        <route edges="206346653#3 206346655#0 40289022#0 40289022#1 40289022#2 40289022#3 40289022#4 1136698219#3"/>
    </vehicle>
    <vehicle id="98" depart="98.00">
        <route edges="22846142#0 22846142#1 1235213735#1 1237732052 1235236196 1235236195 1235236194 1237752424 22846047 1235236193 1235213735#0 -22846142#1 -22846142#0"/>
    </vehicle>
</routes>
