<?xml version="1.0" encoding="UTF-8"?>

<!-- generated on 2024-11-06 19:17:35 by Eclipse SUMO polyconvert Version 1.21.0
<polyconvertConfiguration xmlns:xsi="http://www.w3.org/2001/XMLSchema-instance" xsi:noNamespaceSchemaLocation="http://sumo.dlr.de/xsd/polyconvertConfiguration.xsd">

    <input>
        <net-file value="kalaghoda.net.xml"/>
        <osm-files value="kalaghoda.osm"/>
        <type-file value="typemap.xml"/>
    </input>

    <output>
        <output-file value="kalaghoda.poly.xml"/>
    </output>

</polyconvertConfiguration>
-->

<additional xmlns:xsi="http://www.w3.org/2001/XMLSchema-instance" xsi:noNamespaceSchemaLocation="http://sumo.dlr.de/xsd/additional_file.xsd">
    <location netOffset="-271129.71,-2093362.63" convBoundary="-0.00,0.00,1864.63,1559.72" origBoundary="72.826895,18.919846,72.844533,18.934040" projParameter="+proj=utm +zone=43 +ellps=WGS84 +datum=WGS84 +units=m +no_defs"/>

    <poly id="1030994809" type="water" color="181,209,209" fill="1" layer="-4.00" shape="1161.597977,799.826547 1175.827160,770.044118 1017.550596,695.360383 988.553258,695.438909 984.976195,703.632202 1003.321714,725.154022 1161.597977,799.826547"/>
    <poly id="1030994811" type="landuse" color="194,194,130" fill="1" layer="-3.00" shape="590.012585,744.108614 573.548076,723.925989 574.686196,722.217899 575.240916,720.195864 574.988608,718.526991 574.514645,716.827621 603.552410,693.428936 604.584528,702.828024 605.054251,711.049241 604.231765,719.585283 600.979701,729.346997 594.753407,739.743149 590.012585,744.108614"/>
    <poly id="1035330575" type="building" color="255,230,230" fill="1" layer="-1.00" shape="886.713586,867.493740 781.249990,802.384543 789.685176,789.946146 895.145001,854.745407 886.713586,867.493740"/>
    <poly id="1035330576" type="building" color="255,230,230" fill="1" layer="-1.00" shape="849.624381,852.136820 794.038169,833.851147 791.574669,814.271713 783.277111,812.158967 785.540941,841.230107 789.400237,844.028435 787.972205,857.322054 793.408021,859.791010 790.389128,873.104142 837.971706,888.332248 849.624381,852.136820"/>
    <poly id="1035330592" type="building" color="255,230,230" fill="1" layer="-1.00" shape="985.524072,547.136031 997.834303,538.758220 995.448108,500.531535 978.935331,476.385174 947.948264,466.323433 931.480859,472.537700 985.524072,547.136031"/>
    <poly id="1035330595" type="building" color="255,230,230" fill="1" layer="-1.00" shape="925.885782,653.942769 991.314967,606.093245 977.053780,586.824476 911.624552,634.674046 925.885782,653.942769"/>
    <poly id="1035330596" type="building" color="255,230,230" fill="1" layer="-1.00" shape="874.275649,588.715448 945.255059,539.756903 915.191161,496.687468 844.211638,545.646116 874.275649,588.715448"/>
    <poly id="1035330597" type="building" color="255,230,230" fill="1" layer="-1.00" shape="881.266436,606.279519 897.954341,630.955137 976.728333,578.324686 960.040502,553.649004 881.266436,606.279519"/>
    <poly id="1035330598" type="building" color="255,230,230" fill="1" layer="-1.00" shape="916.867165,663.498279 930.078488,685.658758 1007.285576,640.178395 994.074326,618.017869 916.867165,663.498279"/>
    <poly id="1035330599" type="building" color="255,230,230" fill="1" layer="-1.00" shape="824.652684,719.925706 797.582506,669.223907 817.034806,658.964592 844.104940,709.666414 824.652684,719.925706"/>
    <poly id="1035330600" type="building" color="255,230,230" fill="1" layer="-1.00" shape="909.922202,691.785416 882.027487,636.553846 848.754529,653.172159 876.649194,708.392617 909.922202,691.785416"/>
    <poly id="1035330601" type="building" color="255,230,230" fill="1" layer="-1.00" shape="799.359659,652.604220 817.330143,632.353415 789.251725,607.706834 818.489218,574.783619 809.850563,567.205149 740.514251,645.276237 777.241861,677.501066 799.359659,652.604220"/>
    <poly id="1035330602" type="building" color="255,230,230" fill="1" layer="-1.00" shape="815.181101,712.302092 796.935479,679.186148 756.563728,676.304206 740.241977,661.733529 731.463442,672.814221 765.712886,729.794644 793.129594,715.108191 796.630903,723.081838 815.181101,712.302092"/>
    <poly id="1037496443" type="building" color="255,230,230" fill="1" layer="-1.00" shape="814.663996,620.305862 835.849946,595.885554 822.794204,584.707274 801.618791,609.127468 814.663996,620.305862"/>
    <poly id="1037496444" type="building" color="255,230,230" fill="1" layer="-1.00" shape="839.473134,615.517202 846.366854,626.881776 867.664025,614.108557 860.770316,602.743976 839.473134,615.517202"/>
    <poly id="1253870318" type="tourism" color="207,245,201" fill="1" layer="-2.00" shape="587.093136,619.599213 584.953707,623.002637 581.238351,625.927139 576.016743,626.323422 570.987701,626.097275 565.560347,624.325846 560.161272,619.708399 555.785310,614.314378 553.744930,611.194795 552.970123,607.306732 552.913438,604.406392 553.617566,600.821278 554.604585,603.112272 567.993316,601.918136 565.854193,589.897347 569.073493,587.765091 584.844027,614.068350 587.093136,619.599213"/>
    <poly id="1288957935" type="building" color="255,230,230" fill="1" layer="-1.00" shape="771.270042,849.521421 770.028949,832.529063 758.072813,833.672279 759.556099,850.650594 771.270042,849.521421"/>
    <poly id="1288957936" type="building" color="255,230,230" fill="1" layer="-1.00" shape="770.028949,832.529063 767.900156,803.301248 756.926873,803.823410 758.072813,833.672279 770.028949,832.529063"/>
    <poly id="1288957937" type="building" color="255,230,230" fill="1" layer="-1.00" shape="767.900156,803.301248 767.249963,789.811670 756.276808,790.344902 756.926873,803.823410 767.900156,803.301248"/>
    <poly id="1288957938" type="building" color="255,230,230" fill="1" layer="-1.00" shape="786.332451,910.047960 778.979386,890.439926 775.284495,877.851365 771.270042,849.521421 759.556099,850.650594 763.322240,881.928907 766.868013,894.386425 774.278579,915.244959 786.332451,910.047960"/>
    <poly id="1329343138" type="tourism" color="207,245,201" fill="1" layer="-2.00" shape="636.838695,681.349776 652.793103,701.184388 676.486603,681.915086 668.200838,673.900515 653.316888,669.166922 636.838695,681.349776"/>
    <poly id="1329343139" type="building" color="255,230,230" fill="1" layer="-1.00" shape="619.226843,673.283604 620.108423,676.428490 618.186655,676.961421 617.305075,673.816536 619.226843,673.283604"/>
    <poly id="1329343139#1" type="shop" color="237,199,255" fill="1" layer="-1.00" shape="619.226843,673.283604 620.108423,676.428490 618.186655,676.961421 617.305075,673.816536 619.226843,673.283604"/>
    <poly id="1329343140" type="building" color="255,230,230" fill="1" layer="-1.00" shape="666.811995,804.574851 645.025626,820.388256 649.728256,825.789353 670.641394,810.086325 666.811995,804.574851"/>
    <poly id="1329343141" type="building" color="255,230,230" fill="1" layer="-1.00" shape="655.774473,690.828085 661.653923,685.651436 652.577658,675.044500 647.116579,679.108752 655.774473,690.828085"/>
    <poly id="206808196" type="building" color="255,230,230" fill="1" layer="-1.00" shape="573.097129,787.610385 585.339904,802.087054 604.312307,786.230613 612.513361,795.929237 632.226343,779.454740 624.025294,769.756108 644.917149,752.314911 636.662740,742.561565 632.663726,737.827263 611.751199,755.301945 606.533321,749.132093 601.766807,753.121400 598.398762,749.143373 591.108055,755.234258 594.465565,759.212414 589.323445,763.505298 594.551998,769.686086 573.097129,787.610385"/>
    <poly id="206808196#1" type="historic" color="128,255,128" fill="1" layer="-1.00" shape="573.097129,787.610385 585.339904,802.087054 604.312307,786.230613 612.513361,795.929237 632.226343,779.454740 624.025294,769.756108 644.917149,752.314911 636.662740,742.561565 632.663726,737.827263 611.751199,755.301945 606.533321,749.132093 601.766807,753.121400 598.398762,749.143373 591.108055,755.234258 594.465565,759.212414 589.323445,763.505298 594.551998,769.686086 573.097129,787.610385"/>
    <poly id="206808196#2" type="tourism" color="207,245,201" fill="1" layer="-2.00" shape="573.097129,787.610385 585.339904,802.087054 604.312307,786.230613 612.513361,795.929237 632.226343,779.454740 624.025294,769.756108 644.917149,752.314911 636.662740,742.561565 632.663726,737.827263 611.751199,755.301945 606.533321,749.132093 601.766807,753.121400 598.398762,749.143373 591.108055,755.234258 594.465565,759.212414 589.323445,763.505298 594.551998,769.686086 573.097129,787.610385"/>
    <poly id="206808197" type="building" color="255,230,230" fill="1" layer="-1.00" shape="525.020868,854.924592 514.541061,849.295512 503.439576,841.094142 498.692639,831.231337 498.316330,824.614505 498.153905,787.368057 510.589411,787.503218 510.725363,821.738224 528.833271,835.024488 532.832928,854.396820 525.020868,854.924592"/>
    <poly id="206808197#1" type="tourism" color="207,245,201" fill="1" layer="-2.00" shape="525.020868,854.924592 514.541061,849.295512 503.439576,841.094142 498.692639,831.231337 498.316330,824.614505 498.153905,787.368057 510.589411,787.503218 510.725363,821.738224 528.833271,835.024488 532.832928,854.396820 525.020868,854.924592"/>
    <poly id="206808199" type="building" color="255,230,230" fill="1" layer="-1.00" shape="323.239643,754.151051 421.448803,754.361504 422.265915,737.676026 339.188715,736.659506 341.032746,720.371084 349.244126,706.030710 360.779583,695.513854 367.881366,690.344226 453.759845,669.768006 457.527280,676.232456 463.095412,680.028421 441.664114,734.182350 441.480626,752.698104 450.656229,749.939018 455.914281,744.792073 458.862640,735.189072 483.888992,673.461602 483.370683,664.720564 481.472012,660.270527 475.433158,651.608366 467.442579,650.477445 458.890502,654.247543 456.473230,657.333291 455.596373,652.859632 379.512135,671.289184 361.376474,677.203391 347.784574,686.726831 338.703919,697.213526 330.873360,709.102164 325.497143,721.780018 322.829502,737.070953 323.239643,754.151051"/>
    <poly id="206808199#1" type="historic" color="128,255,128" fill="1" layer="-1.00" shape="323.239643,754.151051 421.448803,754.361504 422.265915,737.676026 339.188715,736.659506 341.032746,720.371084 349.244126,706.030710 360.779583,695.513854 367.881366,690.344226 453.759845,669.768006 457.527280,676.232456 463.095412,680.028421 441.664114,734.182350 441.480626,752.698104 450.656229,749.939018 455.914281,744.792073 458.862640,735.189072 483.888992,673.461602 483.370683,664.720564 481.472012,660.270527 475.433158,651.608366 467.442579,650.477445 458.890502,654.247543 456.473230,657.333291 455.596373,652.859632 379.512135,671.289184 361.376474,677.203391 347.784574,686.726831 338.703919,697.213526 330.873360,709.102164 325.497143,721.780018 322.829502,737.070953 323.239643,754.151051"/>
    <poly id="206808200" type="building" color="255,230,230" fill="1" layer="-1.00" shape="420.443018,722.240976 432.598120,721.848046 431.617386,691.764583 419.462264,692.157511 420.443018,722.240976"/>
    <poly id="206808201" type="building" color="255,230,230" fill="1" layer="-1.00" shape="445.927803,881.396457 445.589513,859.864272 461.202490,859.617105 461.551297,881.149159 445.927803,881.396457"/>
    <poly id="206808203" type="building" color="255,230,230" fill="1" layer="-1.00" shape="543.050349,850.672732 534.471692,838.542788 560.433639,820.397000 569.022819,832.526826 543.050349,850.672732"/>
    <poly id="206808206" type="building" color="255,230,230" fill="1" layer="-1.00" shape="686.660192,717.543828 675.740583,704.412794 668.745952,695.994837 681.694296,685.538372 699.441045,707.178010 686.660192,717.543828"/>
    <poly id="206808208" type="building" color="255,230,230" fill="1" layer="-1.00" shape="644.466685,730.208351 632.663726,737.827263 636.662740,742.561565 643.109051,737.211859 645.819533,740.843639 650.135202,737.037041 644.466685,730.208351"/>
    <poly id="206808210" type="college" color="237,199,199" fill="1" layer="-2.00" shape="405.945648,841.594245 427.436115,841.164108 426.140626,777.744701 438.613526,777.491812 439.908973,840.911215 463.179672,840.437103 461.641931,765.006840 404.407673,766.163964 405.945648,841.594245"/>
    <poly id="206808210#1" type="building" color="255,230,230" fill="1" layer="-1.00" shape="405.945648,841.594245 427.436115,841.164108 426.140626,777.744701 438.613526,777.491812 439.908973,840.911215 463.179672,840.437103 461.641931,765.006840 404.407673,766.163964 405.945648,841.594245"/>
    <poly id="206808211" type="building" color="255,230,230" fill="1" layer="-1.00" shape="644.466685,730.208351 650.135202,737.037041 662.327571,751.702610 693.665479,725.972732 686.660192,717.543828 675.740583,704.412794 668.745952,695.994837 662.058930,701.480357 669.107056,709.964092 644.466685,730.208351"/>
    <poly id="206817482" type="military" color="153,153,92" fill="1" layer="-3.00" shape="853.491654,417.322277 891.518833,467.867700 826.532195,534.646325 786.499717,575.773871 706.924630,657.547154 735.982958,684.761521 753.736196,715.524984 753.021153,737.978009 752.027944,769.536162 753.609167,806.521548 762.790425,889.254451 778.393393,933.719016 812.616538,1007.496992 815.402369,1024.149296 846.379520,1078.999685 880.257928,1125.565410 919.394200,1151.515888 933.605124,1175.302833 944.640598,1270.967995 1004.113445,1261.746180 1019.514228,1277.745597 1031.534481,1357.509461 1042.322365,1392.610356 1043.938694,1428.200135 1095.989030,1384.246114 1152.462800,1348.708639 1227.482729,1407.050432 1280.472576,1426.885898 1282.783902,1559.717939 1405.677648,1536.854484 1633.080158,1476.550813 1656.285164,1468.195219 1730.162048,995.101960 1854.807266,675.221029 1858.850386,662.017458 1864.625315,637.033681 1863.754606,612.319268 1854.873985,584.879132 1841.722293,565.784494 1429.774358,119.765093 1434.408409,110.086347 1421.481612,93.070823 1386.954618,64.992195 1349.738784,48.838477 1310.648682,40.558226 1271.591905,40.172412 1229.108111,43.903336 1202.800490,50.304170 1179.087572,60.349388 1146.226059,82.276825 853.491654,417.322277"/>
    <poly id="206817482#1" type="military" color="153,153,92" fill="1" layer="-2.00" shape="853.491654,417.322277 891.518833,467.867700 826.532195,534.646325 786.499717,575.773871 706.924630,657.547154 735.982958,684.761521 753.736196,715.524984 753.021153,737.978009 752.027944,769.536162 753.609167,806.521548 762.790425,889.254451 778.393393,933.719016 812.616538,1007.496992 815.402369,1024.149296 846.379520,1078.999685 880.257928,1125.565410 919.394200,1151.515888 933.605124,1175.302833 944.640598,1270.967995 1004.113445,1261.746180 1019.514228,1277.745597 1031.534481,1357.509461 1042.322365,1392.610356 1043.938694,1428.200135 1095.989030,1384.246114 1152.462800,1348.708639 1227.482729,1407.050432 1280.472576,1426.885898 1282.783902,1559.717939 1405.677648,1536.854484 1633.080158,1476.550813 1656.285164,1468.195219 1730.162048,995.101960 1854.807266,675.221029 1858.850386,662.017458 1864.625315,637.033681 1863.754606,612.319268 1854.873985,584.879132 1841.722293,565.784494 1429.774358,119.765093 1434.408409,110.086347 1421.481612,93.070823 1386.954618,64.992195 1349.738784,48.838477 1310.648682,40.558226 1271.591905,40.172412 1229.108111,43.903336 1202.800490,50.304170 1179.087572,60.349388 1146.226059,82.276825 853.491654,417.322277"/>
    <poly id="207318935" type="commercial" color="209,209,204" fill="1" layer="-3.00" shape="493.288576,937.728174 490.423570,945.536377 490.330497,1201.294007 492.328391,1210.393342 515.196007,1271.499301 521.403951,1272.497091 523.537303,1270.322788 572.021773,1067.318996 616.577855,983.671606 637.347387,939.978601 646.800511,919.488876 650.377824,888.153642 651.087573,874.724873 651.912714,852.669091 664.027479,828.393085 663.437776,802.667477 660.434485,799.216451 539.528894,902.846070 493.288576,937.728174"/>
    <poly id="207318937" type="commercial" color="209,209,204" fill="1" layer="-3.00" shape="671.951173,793.173383 703.245275,771.607367 729.095026,768.344861 731.571529,771.802360 734.806099,797.539798 750.017982,912.320462 751.428109,939.652602 746.494524,960.939402 735.445508,1072.067221 732.349306,1083.366101 726.466830,1082.275659 664.240920,1056.110675 601.019920,1040.742868 597.943584,1032.199328 649.407787,939.609105 654.060052,923.740248 658.250125,854.761545 663.581511,841.851832 670.947225,827.278401 671.951173,793.173383"/>
    <poly id="207318941" type="commercial" color="209,209,204" fill="1" layer="-3.00" shape="465.175131,845.904633 394.534958,847.680480 392.953658,948.804487 460.396383,949.249184 463.875048,946.792607 465.175131,845.904633"/>
    <poly id="207318959" type="commercial" color="209,209,204" fill="1" layer="-3.00" shape="706.924630,657.547154 643.098568,621.314530 626.718361,605.427010 621.117488,587.801655 627.326585,566.554533 671.967983,484.567339 786.499717,575.773871 706.924630,657.547154"/>
    <poly id="207365142" type="building" color="255,230,230" fill="1" layer="-1.00" shape="674.341699,558.647451 677.658519,544.710575 688.061493,541.493656 698.389186,549.317097 707.363844,574.829087 720.871781,570.466825 727.779701,590.711453 698.567535,600.780575 702.944204,613.106094 694.382022,616.056824 674.341699,558.647451"/>
    <poly id="207365144" type="building" color="255,230,230" fill="1" layer="-1.00" shape="647.477331,547.948765 668.127349,540.830307 674.341699,558.647451 694.382022,616.056824 677.520103,621.877567 673.732085,623.175261 647.477331,547.948765"/>
    <poly id="207365145" type="building" color="255,230,230" fill="1" layer="-1.00" shape="677.520103,621.877567 699.416277,633.024785 704.703980,629.427730 712.579534,637.502713 702.042168,647.796696 672.299911,632.693170 677.520103,621.877567"/>
    <poly id="207365146" type="building" color="255,230,230" fill="1" layer="-1.00" shape="694.382022,616.056824 699.148978,629.274437 709.327940,625.838820 708.170546,622.542299 732.728695,613.615404 729.283027,604.168419 702.944204,613.106094 694.382022,616.056824"/>
    <poly id="207365147" type="building" color="255,230,230" fill="1" layer="-1.00" shape="723.328287,533.642285 715.846143,543.035102 671.977634,508.539505 666.654052,515.226275 710.532958,549.710659 706.579306,554.686495 743.382560,583.610706 760.131549,562.566530 723.328287,533.642285"/>
    <poly id="207365148" type="commercial" color="209,209,204" fill="1" layer="-3.00" shape="671.967983,484.567339 748.578051,387.804784 772.865302,357.621836 853.491654,417.322277 891.518833,467.867700 786.499717,575.773871 671.967983,484.567339"/>
    <poly id="207417314" type="commercial" color="209,209,204" fill="1" layer="-3.00" shape="520.481307,536.740977 491.508215,565.420636 470.128307,568.872141 327.549853,448.104731 328.762120,430.993628 350.881716,401.113496 520.481307,536.740977"/>
    <poly id="207417315" type="commercial" color="209,209,204" fill="1" layer="-3.00" shape="307.940165,648.750063 314.596506,652.776212 500.177460,615.805509 491.508215,565.420636 470.128307,568.872141 349.341445,593.907627 302.195001,601.407482 307.940165,648.750063"/>
    <poly id="207417320" type="commercial" color="209,209,204" fill="1" layer="-3.00" shape="557.790673,488.415789 558.320429,497.234192 576.254259,545.246516 585.424236,552.320099 599.227301,549.681458 685.463693,443.133985 687.448150,436.543556 630.365362,395.167956 624.393537,396.259930 557.790673,488.415789"/>
    <poly id="207417321" type="commercial" color="209,209,204" fill="1" layer="-3.00" shape="491.508215,565.420636 500.177460,615.805509 527.730740,606.232554 532.010942,601.252663 537.342481,581.488937 542.822607,573.825806 543.982151,567.854478 543.943484,560.414127 520.481307,536.740977 491.508215,565.420636"/>
    <poly id="207489559" type="amenity" color="237,199,199" fill="1" layer="-1.00" shape="584.546159,642.163336 568.596205,645.016589 552.708170,653.770824 531.195820,672.171987 525.736195,685.791967 553.117955,670.839832 602.860522,656.809085 654.305005,656.952733 621.713381,645.792901 596.664120,643.033258 584.546159,642.163336"/>
    <poly id="207489613" type="leisure" color="207,245,201" fill="1" layer="-2.00" shape="704.694044,752.278889 721.801342,733.832327 725.657505,747.537242 712.664329,750.044068 704.694044,752.278889"/>
    <poly id="207489614" type="leisure" color="207,245,201" fill="1" layer="-2.00" shape="503.097384,688.827075 532.185759,636.085104 553.547436,638.878866 519.489235,670.477680 503.097384,688.827075"/>
    <poly id="258356486" type="water" color="181,209,209" fill="1" layer="-4.00" shape="1012.347121,883.824917 851.512637,782.710357 842.855781,776.217224 841.823703,771.966915 844.189561,768.981507 848.011199,767.849522 856.663226,770.511584 1021.788788,868.384693 1012.347121,883.824917"/>
    <poly id="258356487" type="water" color="181,209,209" fill="1" layer="-4.00" shape="1007.375973,890.894813 836.226452,790.704029 832.721943,789.340783 828.972102,789.453207 825.556115,791.012054 823.029651,793.789055 821.808564,797.325131 822.075569,801.053337 823.791726,804.376226 826.686993,806.754553 997.608322,907.246998 1007.375973,890.894813"/>
    <poly id="358470290" type="building" color="255,230,230" fill="1" layer="-1.00" shape="662.144396,879.295039 692.165511,875.936975 689.671740,853.899784 659.650588,857.257849 662.144396,879.295039"/>
    <poly id="358470308" type="building" color="255,230,230" fill="1" layer="-1.00" shape="529.678004,600.052244 539.317297,557.813490 520.231169,542.114288 496.467476,571.117516 504.338832,606.298351 529.678004,600.052244"/>
    <poly id="363253493" type="landuse" color="194,194,130" fill="1" layer="-3.00" shape="617.963708,708.587659 636.301057,730.264285 611.977901,750.593283 604.546673,741.804238 611.223147,731.170038 615.063644,722.131898 617.963708,708.587659"/>
    <poly id="363253494" type="landuse" color="194,194,130" fill="1" layer="-3.00" shape="558.954469,768.584041 557.849864,770.446739 557.146630,773.245684 557.920415,776.192583 559.638052,778.773567 562.265350,780.778677 564.706746,782.232437 568.815617,782.181987 573.646075,780.827178 576.796756,779.116523 578.629745,776.503016 579.716884,774.075829 580.433103,771.476033 580.394365,768.320801 580.367044,766.095532 558.954469,768.584041"/>
    <poly id="363253497" type="landuse" color="194,194,130" fill="1" layer="-3.00" shape="583.124475,749.519128 566.649290,729.325566 564.740783,730.079795 562.635022,730.216376 561.036535,729.615934 559.467071,728.804755 530.440086,752.214461 539.485534,755.159439 547.478032,757.309047 556.046111,758.277888 566.326869,757.132972 577.838187,753.226934 583.124475,749.519128"/>
    <poly id="363253498" type="landuse" color="194,194,130" fill="1" layer="-3.00" shape="547.687946,692.022066 564.163045,712.204544 566.082090,711.450187 568.177453,711.324806 569.775806,711.914178 571.345270,712.725358 600.372503,689.326799 596.663917,683.359873 592.180172,679.484124 586.562312,676.784927 580.474557,676.151014 572.953611,678.081411 562.898743,682.179944 552.974247,688.314253 547.687946,692.022066"/>
    <poly id="363253502" type="landuse" color="194,194,130" fill="1" layer="-3.00" shape="540.308526,696.896067 556.783766,717.089610 555.645647,718.797701 555.080258,720.808794 555.332703,722.488739 555.806668,724.188109 526.779542,747.586750 521.662230,742.744403 518.774791,737.575711 517.288923,731.559358 517.920575,725.505927 521.365574,718.587498 527.483492,709.665313 535.567838,701.272616 540.308526,696.896067"/>
    <poly id="379331886" type="building" color="255,230,230" fill="1" layer="-1.00" shape="708.855420,820.911471 715.740879,871.960478 747.679138,867.693169 740.783233,816.644289 708.855420,820.911471"/>
    <poly id="379331887" type="building" color="255,230,230" fill="1" layer="-1.00" shape="699.539497,802.789133 734.806099,797.539798 736.974852,811.985139 701.708142,817.223402 699.539497,802.789133"/>
    <poly id="379331888" type="building" color="255,230,230" fill="1" layer="-1.00" shape="672.816146,819.006338 675.686469,834.805004 702.455044,830.003148 699.584744,814.204480 672.816146,819.006338"/>
    <poly id="379339275" type="building" color="255,230,230" fill="1" layer="-1.00" shape="599.485430,853.965952 603.228717,861.903382 606.801724,873.995150 607.045577,885.275194 634.689219,875.369066 634.640560,873.121914 634.305703,863.869284 632.296779,856.442047 628.930997,853.504819 622.814786,843.680944 599.485430,853.965952"/>
    <poly id="40433485" type="leisure" color="207,245,201" fill="1" layer="-2.00" shape="593.631303,561.642181 601.719458,575.870912 608.514805,553.453957 593.631303,561.642181"/>
    <poly id="40433488" type="leisure" color="207,245,201" fill="1" layer="-2.00" shape="556.202948,563.363952 565.336656,558.900261 554.562701,532.757120 553.154450,533.062298 556.202948,563.363952"/>
    <poly id="40433489" type="parking" color="184,184,179" fill="1" layer="-1.00" shape="553.775131,596.489934 553.617566,600.821278 554.604585,603.112272 567.993316,601.918136 565.854193,589.897347 569.073493,587.765091 584.844027,614.068350 587.093136,619.599213 591.096910,613.559755 592.907573,606.550682 592.344858,599.338219 589.439211,592.686004 585.477412,585.836374 580.416633,580.450755 575.240834,577.712913 568.929688,577.768248 563.834693,580.753980 559.734470,584.945494 557.337155,587.942399 555.116840,591.623637 553.775131,596.489934"/>
    <poly id="40433490" type="leisure" color="207,245,201" fill="1" layer="-2.00" shape="600.109534,628.419349 606.456603,615.840409 623.884271,631.216787 635.261448,636.978868 634.841580,637.969488 622.498449,633.348674 600.109534,628.419349"/>
    <poly id="407952106" type="amenity" color="237,199,199" fill="1" layer="-1.00" shape="673.024642,814.530427 697.580090,811.416627 697.185451,802.441550 702.787884,797.877305 732.418095,794.424465 729.308496,771.143622 703.337696,773.986853 673.633318,794.581111 673.024642,814.530427"/>
    <poly id="42349128" type="parking" color="184,184,179" fill="1" layer="-1.00" shape="493.441365,918.426640 510.847532,907.184473 538.584954,883.469429 492.581505,857.858648 493.441365,918.426640"/>
    <poly id="49480530" type="tourism" color="207,245,201" fill="1" layer="-2.00" shape="543.109702,866.660926 532.535234,867.909124 500.658944,842.047325 493.632379,830.175150 489.848634,813.800862 492.629286,751.936950 499.069250,723.766507 525.736195,685.791967 553.117955,670.839832 602.860522,656.809085 654.305005,656.952733 679.683484,668.511166 707.342855,695.067227 718.820667,725.354033 671.357880,768.012526 658.700178,778.963710 573.116575,850.126380 543.109702,866.660926"/>
    <poly id="520112721" type="building" color="255,230,230" fill="1" layer="-1.00" shape="959.121222,800.181322 983.418598,812.118775 980.086637,818.814263 998.192972,827.705129 996.311103,831.492887 1021.456408,843.840749 1057.377423,771.605695 970.396607,728.879320 944.522577,780.883507 963.975394,790.444344 959.121222,800.181322"/>
    <poly id="56207793" type="school" color="237,199,199" fill="1" layer="-2.00" shape="454.057466,579.046003 461.900955,611.093608 491.107859,604.035926 483.264421,571.988314 454.057466,579.046003"/>
    <poly id="56207793#1" type="building" color="255,230,230" fill="1" layer="-1.00" shape="454.057466,579.046003 461.900955,611.093608 491.107859,604.035926 483.264421,571.988314 454.057466,579.046003"/>
    <poly id="56207797" type="building" color="255,230,230" fill="1" layer="-1.00" shape="422.234996,616.796087 454.467997,609.036810 447.388854,580.024801 415.155803,587.784085 422.234996,616.796087"/>
    <poly id="56207978" type="building" color="255,230,230" fill="1" layer="-1.00" shape="486.833691,522.848295 506.866588,538.414042 486.458556,564.375385 479.734867,559.154156 487.132610,549.762265 482.525917,546.175935 473.426834,557.747892 464.713653,550.978785 486.833691,522.848295"/>
    <poly id="56208130" type="landuse" color="194,194,130" fill="1" layer="-3.00" shape="349.341445,593.907627 470.128307,568.872141 327.549853,448.104731 349.341445,593.907627"/>
    <poi id="10223835617" type="shop" color="237,199,255" layer="4.00" x="526.28" y="551.97"/>
    <poi id="10269913998" type="historic" color="128,255,128" layer="4.00" x="614.09" y="627.18"/>
    <poi id="1056702132" type="amenity" color="237,199,199" layer="4.00" x="568.66" y="824.29"/>
    <poi id="11273550694" type="amenity" color="237,199,199" layer="4.00" x="650.25" y="862.47"/>
    <poi id="1151728614" type="tourism" color="207,245,201" layer="3.00" x="439.53" y="598.86"/>
    <poi id="11587888469" type="tourism" color="207,245,201" layer="3.00" x="536.74" y="643.91"/>
    <poi id="12299107675" type="natural" color="140,196,107" layer="1.00" x="632.51" y="672.64"/>
    <poi id="12299107677" type="natural" color="140,196,107" layer="1.00" x="630.78" y="681.45"/>
    <poi id="12299107685" type="natural" color="140,196,107" layer="1.00" x="637.18" y="679.76"/>
    <poi id="12299107686" type="amenity" color="237,199,199" layer="4.00" x="664.99" y="683.00"/>
    <poi id="12299107689" type="natural" color="140,196,107" layer="1.00" x="624.52" y="670.71"/>
    <poi id="12299107695" type="amenity" color="237,199,199" layer="4.00" x="669.00" y="679.52"/>
    <poi id="12299107696" type="natural" color="140,196,107" layer="1.00" x="626.59" y="674.84"/>
    <poi id="12299107697" type="natural" color="140,196,107" layer="1.00" x="633.93" y="678.58"/>
    <poi id="12299166849" type="amenity" color="237,199,199" layer="4.00" x="622.48" y="685.01"/>
    <poi id="12299166850" type="natural" color="140,196,107" layer="1.00" x="640.45" y="677.10"/>
    <poi id="12299166854" type="amenity" color="237,199,199" layer="4.00" x="638.35" y="744.05"/>
    <poi id="12299166857" type="amenity" color="237,199,199" layer="4.00" x="621.23" y="671.12"/>
    <poi id="12299166859" type="tourism" color="207,245,201" layer="3.00" x="627.50" y="690.18"/>
    <poi id="12299166860" type="natural" color="140,196,107" layer="1.00" x="634.46" y="673.03"/>