<?xml version="1.0" encoding="UTF-8"?>

<!-- generated on 2024-11-06 19:16:27 by Eclipse SUMO netconvert Version 1.21.0
<netconvertConfiguration xmlns:xsi="http://www.w3.org/2001/XMLSchema-instance" xsi:noNamespaceSchemaLocation="http://sumo.dlr.de/xsd/netconvertConfiguration.xsd">

    <input>
        <osm-files value="kalaghoda.osm"/>
    </input>

    <output>
        <output-file value="kalaghoda.net.xml"/>
    </output>

    <projection>
        <proj.utm value="true"/>
    </projection>

</netconvertConfiguration>
-->

<net version="1.20" junctionCornerDetail="5" limitTurnSpeed="5.50" xmlns:xsi="http://www.w3.org/2001/XMLSchema-instance" xsi:noNamespaceSchemaLocation="http://sumo.dlr.de/xsd/net_file.xsd">

    <location netOffset="-271129.71,-2093362.63" convBoundary="0.00,0.00,1829.93,1485.72" origBoundary="72.826895,18.919846,72.844212,18.933399" projParameter="+proj=utm +zone=43 +ellps=WGS84 +datum=WGS84 +units=m +no_defs"/>

    <type id="highway.footway" priority="1" numLanes="1" speed="2.78" allow="pedestrian" oneway="1" width="2.00"/>
    <type id="highway.pedestrian" priority="1" numLanes="1" speed="2.78" allow="pedestrian" oneway="1" width="2.00"/>
    <type id="highway.primary" priority="12" numLanes="2" speed="27.78" disallow="tram rail_urban rail rail_electric rail_fast ship container cable_car subway aircraft wheelchair scooter drone" oneway="0"/>
    <type id="highway.residential" priority="3" numLanes="1" speed="13.89" disallow="tram rail_urban rail rail_electric rail_fast ship container cable_car subway aircraft wheelchair scooter drone" oneway="0"/>
    <type id="highway.secondary" priority="11" numLanes="1" speed="27.78" disallow="tram rail_urban rail rail_electric rail_fast ship container cable_car subway aircraft wheelchair scooter drone" oneway="0"/>
    <type id="highway.service" priority="1" numLanes="1" speed="5.56" allow="pedestrian delivery bicycle" oneway="0"/>
    <type id="highway.tertiary" priority="10" numLanes="1" speed="22.22" disallow="tram rail_urban rail rail_electric rail_fast ship container cable_car subway aircraft wheelchair scooter drone" oneway="0"/>

    <edge id=":10943276484_0" function="internal">
        <lane id=":10943276484_0_0" index="0" allow="pedestrian delivery bicycle" speed="3.65" length="4.67" shape="406.61,760.96 405.42,760.15 405.02,759.35 405.43,758.55 406.63,757.76"/>
    </edge>
    <edge id=":11021735262_0" function="internal">
        <lane id=":11021735262_0_0" index="0" allow="pedestrian delivery bicycle" speed="5.56" length="10.20" shape="806.05,742.76 800.22,751.12"/>
    </edge>
    <edge id=":11021735262_1" function="internal">
        <lane id=":11021735262_1_0" index="0" allow="pedestrian delivery bicycle" speed="5.56" length="11.02" shape="806.05,742.76 804.47,744.28 802.24,745.22 799.37,745.58 795.87,745.36"/>
    </edge>
    <edge id=":11021735262_2" function="internal">
        <lane id=":11021735262_2_0" index="0" allow="pedestrian delivery bicycle" speed="3.65" length="4.67" shape="806.05,742.76 804.71,743.28 803.82,743.15 803.40,742.37 803.43,740.93"/>
    </edge>
    <edge id=":11021735262_3" function="internal">
        <lane id=":11021735262_3_0" index="0" allow="pedestrian delivery bicycle" speed="5.56" length="7.53" shape="796.30,742.19 798.88,742.40 800.94,742.26 802.45,741.77 803.43,740.93"/>
    </edge>
    <edge id=":11021735262_4" function="internal">
        <lane id=":11021735262_4_0" index="0" allow="pedestrian delivery bicycle" speed="5.56" length="13.00" shape="796.30,742.19 800.02,743.22 801.92,745.05 801.98,747.68 800.22,751.12"/>
    </edge>
    <edge id=":11021735262_5" function="internal">
        <lane id=":11021735262_5_0" index="0" allow="pedestrian delivery bicycle" speed="3.65" length="4.67" shape="796.30,742.19 797.38,743.14 797.67,743.99 797.16,744.73 795.87,745.36"/>
    </edge>
    <edge id=":11021735262_6" function="internal">
        <lane id=":11021735262_6_0" index="0" allow="pedestrian delivery bicycle" speed="4.69" length="5.72" shape="797.60,749.29 798.37,747.78 798.34,746.62 797.51,745.81 795.87,745.36"/>
    </edge>
    <edge id=":11021735262_7" function="internal">
        <lane id=":11021735262_7_0" index="0" allow="pedestrian delivery bicycle" speed="5.56" length="10.20" shape="797.60,749.29 803.43,740.93"/>
    </edge>
    <edge id=":11021735262_8" function="internal">
        <lane id=":11021735262_8_0" index="0" allow="pedestrian delivery bicycle" speed="3.65" length="4.67" shape="797.60,749.29 798.94,748.76 799.82,748.89 800.25,749.68 800.22,751.12"/>
    </edge>
    <edge id=":11955846372_0" function="internal">
        <lane id=":11955846372_0_0" index="0" disallow="tram rail_urban rail rail_electric rail_fast ship container cable_car subway aircraft wheelchair scooter drone" speed="5.85" length="7.56" shape="664.02,787.60 662.82,786.46 661.32,786.16 659.53,786.69 657.44,788.06"/>
    </edge>
    <edge id=":11955846372_1" function="internal">
        <lane id=":11955846372_1_0" index="0" disallow="tram rail_urban rail rail_electric rail_fast ship container cable_car subway aircraft wheelchair scooter drone" speed="22.22" length="11.21" shape="666.20,781.06 657.44,788.06"/>
    </edge>
    <edge id=":11955846373_0" function="internal">
        <lane id=":11955846373_0_0" index="0" disallow="tram rail_urban rail rail_electric rail_fast ship container cable_car subway aircraft wheelchair scooter drone" speed="22.22" length="5.00" shape="593.43,841.41 589.63,844.67"/>
    </edge>
    <edge id=":12299166851_0" function="internal">
        <lane id=":12299166851_0_0" index="0" disallow="tram rail_urban rail rail_electric rail_fast ship container cable_car subway aircraft wheelchair scooter drone" speed="22.22" length="5.00" shape="677.78,771.81 673.87,774.93"/>
    </edge>
    <edge id=":12299166852_0" function="internal">
        <lane id=":12299166852_0_0" index="0" allow="pedestrian delivery bicycle" speed="4.73" length="5.90" shape="618.57,712.85 617.10,711.97 615.94,711.95 615.07,712.80 614.51,714.52"/>
    </edge>
    <edge id=":12299166852_1" function="internal">
        <lane id=":12299166852_1_0" index="0" allow="pedestrian delivery bicycle" speed="5.56" length="12.57" shape="618.57,712.85 615.94,710.67 613.86,708.56 612.36,706.11 611.44,702.93"/>
    </edge>
    <edge id=":12299166852_2" function="internal">
        <lane id=":12299166852_2_0" index="0" allow="pedestrian delivery bicycle" speed="3.65" length="4.67" shape="618.57,712.85 618.15,711.48 618.34,710.60 619.15,710.24 620.59,710.37"/>
    </edge>
    <edge id=":12299166852_3" function="internal">
        <lane id=":12299166852_3_0" index="0" allow="pedestrian delivery bicycle" speed="5.56" length="10.38" shape="614.60,702.39 615.34,705.27 616.45,707.05 618.14,708.49 620.59,710.37"/>
    </edge>
    <edge id=":12299166852_4" function="internal">
        <lane id=":12299166852_4_0" index="0" allow="pedestrian delivery bicycle" speed="5.56" length="12.21" shape="614.60,702.39 615.07,705.68 615.22,708.46 615.04,711.25 614.51,714.52"/>
    </edge>
    <edge id=":12299166852_5" function="internal">
        <lane id=":12299166852_5_0" index="0" allow="pedestrian delivery bicycle" speed="3.65" length="1.44" shape="614.60,702.39 614.01,703.71"/>
    </edge>
    <edge id=":12299166852_9" function="internal">
        <lane id=":12299166852_9_0" index="0" allow="pedestrian delivery bicycle" speed="3.65" length="3.23" shape="614.01,703.71 613.29,704.24 612.43,703.98 611.44,702.93"/>
    </edge>
    <edge id=":12299166852_6" function="internal">
        <lane id=":12299166852_6_0" index="0" allow="pedestrian delivery bicycle" speed="5.56" length="11.48" shape="611.29,714.31 611.83,711.16 612.03,708.63 611.90,706.10 611.44,702.93"/>
    </edge>
    <edge id=":12299166852_7" function="internal">
        <lane id=":12299166852_7_0" index="0" allow="pedestrian delivery bicycle" speed="5.56" length="4.18" shape="611.29,714.31 612.58,710.33"/>
    </edge>
    <edge id=":12299166852_8" function="internal">
        <lane id=":12299166852_8_0" index="0" allow="pedestrian delivery bicycle" speed="3.66" length="1.45" shape="611.29,714.31 612.17,713.16"/>
    </edge>
    <edge id=":12299166852_10" function="internal">
        <lane id=":12299166852_10_0" index="0" allow="pedestrian delivery bicycle" speed="5.56" length="9.38" shape="612.58,710.33 614.57,708.35 617.24,708.36 620.59,710.37"/>
    </edge>
    <edge id=":12299166852_11" function="internal">
        <lane id=":12299166852_11_0" index="0" allow="pedestrian delivery bicycle" speed="3.66" length="3.26" shape="612.17,713.16 613.00,712.81 613.78,713.26 614.51,714.52"/>
    </edge>
    <edge id=":12299166868_0" function="internal">
        <lane id=":12299166868_0_0" index="0" allow="pedestrian delivery bicycle" speed="3.65" length="4.67" shape="632.25,722.23 632.45,723.66 632.13,724.49 631.26,724.73 629.87,724.37"/>
    </edge>
    <edge id=":1643144572_0" function="internal">
        <lane id=":1643144572_0_0" index="0" disallow="tram rail_urban rail rail_electric rail_fast ship container cable_car subway aircraft wheelchair scooter drone" speed="27.78" length="8.30" shape="475.42,753.76 474.88,755.87 474.70,757.36 474.72,758.88 474.75,761.08"/>
        <lane id=":1643144572_0_1" index="1" disallow="tram rail_urban rail rail_electric rail_fast ship container cable_car subway aircraft wheelchair scooter drone" speed="27.78" length="8.30" shape="472.36,752.84 471.74,755.21 471.52,756.88 471.52,758.58 471.55,761.05"/>
        <lane id=":1643144572_0_2" index="2" disallow="tram rail_urban rail rail_electric rail_fast ship container cable_car subway aircraft wheelchair scooter drone" speed="27.78" length="8.30" shape="469.29,751.92 468.60,754.55 468.34,756.40 468.33,758.29 468.35,761.02"/>
    </edge>
    <edge id=":1643144572_3" function="internal">
        <lane id=":1643144572_3_0" index="0" allow="pedestrian delivery bicycle" speed="7.50" length="7.91" shape="469.29,751.92 468.37,754.50 467.35,756.40 466.23,757.63 465.00,758.20"/>
    </edge>
    <edge id=":1643144572_4" function="internal">
        <lane id=":1643144572_4_0" index="0" allow="pedestrian delivery bicycle" speed="6.73" length="11.14" shape="464.43,755.05 467.57,754.94 469.80,755.90 471.13,757.94 471.55,761.05"/>
        <lane id=":1643144572_4_1" index="1" allow="pedestrian delivery bicycle" speed="5.91" length="8.32" shape="464.43,755.05 466.17,755.15 467.40,756.18 468.13,758.14 468.35,761.02"/>
    </edge>
    <edge id=":1643144572_6" function="internal">
        <lane id=":1643144572_6_0" index="0" allow="pedestrian delivery bicycle" speed="3.65" length="4.67" shape="464.43,755.05 465.76,755.62 466.29,756.34 466.04,757.20 465.00,758.20"/>
    </edge>
    <edge id=":1643144576_0" function="internal">
        <lane id=":1643144576_0_0" index="0" disallow="tram rail_urban rail rail_electric rail_fast ship container cable_car subway aircraft wheelchair scooter drone" speed="27.78" length="11.28" shape="474.74,847.64 474.74,858.97"/>
        <lane id=":1643144576_0_1" index="1" disallow="tram rail_urban rail rail_electric rail_fast ship container cable_car subway aircraft wheelchair scooter drone" speed="27.78" length="11.28" shape="471.54,847.66 471.54,858.94"/>
        <lane id=":1643144576_0_2" index="2" disallow="tram rail_urban rail rail_electric rail_fast ship container cable_car subway aircraft wheelchair scooter drone" speed="27.78" length="11.28" shape="468.34,847.69 468.34,858.91"/>
    </edge>
    <edge id=":1643144576_3" function="internal">
        <lane id=":1643144576_3_0" index="0" disallow="tram rail_urban rail rail_electric rail_fast ship container cable_car subway aircraft wheelchair scooter drone" speed="7.28" length="11.76" shape="462.75,853.35 466.62,853.66 469.37,854.69 471.01,856.46 471.54,858.94"/>
        <lane id=":1643144576_3_1" index="1" disallow="tram rail_urban rail rail_electric rail_fast ship container cable_car subway aircraft wheelchair scooter drone" speed="6.46" length="9.03" shape="462.75,853.35 465.22,853.67 466.97,854.71 468.01,856.45 468.34,858.91"/>
    </edge>
    <edge id=":2163538982_0" function="internal">
        <lane id=":2163538982_0_0" index="0" disallow="tram rail_urban rail rail_electric rail_fast ship container cable_car subway aircraft wheelchair scooter drone" speed="27.78" length="19.18" shape="638.93,646.23 656.95,652.98"/>
        <lane id=":2163538982_0_1" index="1" disallow="tram rail_urban rail rail_electric rail_fast ship container cable_car subway aircraft wheelchair scooter drone" speed="27.78" length="19.18" shape="637.73,649.20 655.63,655.90"/>
    </edge>
    <edge id=":2163538982_2" function="internal">
        <lane id=":2163538982_2_0" index="0" allow="pedestrian delivery bicycle" speed="16.67" length="19.25" shape="636.81,652.57 640.61,652.85 644.81,653.03 649.71,653.81 655.63,655.90"/>
    </edge>
    <edge id=":2163538986_0" function="internal">
        <lane id=":2163538986_0_0" index="0" disallow="tram rail_urban rail rail_electric rail_fast ship container cable_car subway aircraft wheelchair scooter drone" speed="5.52" length="9.49" shape="736.08,733.59 733.30,732.57 731.54,732.87 730.81,734.50 731.09,737.45"/>
    </edge>
    <edge id=":2163538986_1" function="internal">
        <lane id=":2163538986_1_0" index="0" disallow="tram rail_urban rail rail_electric rail_fast ship container cable_car subway aircraft wheelchair scooter drone" speed="15.23" length="16.25" shape="736.08,733.59 732.43,732.04 728.38,730.92 724.25,730.40 720.34,730.64"/>
    </edge>
    <edge id=":2163538986_2" function="internal">
        <lane id=":2163538986_2_0" index="0" disallow="tram rail_urban rail rail_electric rail_fast ship container cable_car subway aircraft wheelchair scooter drone" speed="27.78" length="14.73" shape="727.32,723.06 728.65,727.27 729.46,730.18 730.15,733.13 731.09,737.45"/>
        <lane id=":2163538986_2_1" index="1" disallow="tram rail_urban rail rail_electric rail_fast ship container cable_car subway aircraft wheelchair scooter drone" speed="27.78" length="14.73" shape="724.28,724.04 725.57,728.17 726.37,731.02 727.04,733.91 727.97,738.14"/>
    </edge>
    <edge id=":2163538986_4" function="internal">
        <lane id=":2163538986_4_0" index="0" disallow="tram rail_urban rail rail_electric rail_fast ship container cable_car subway aircraft wheelchair scooter drone" speed="6.25" length="9.05" shape="724.28,724.04 724.70,726.53 724.18,728.46 722.73,729.83 720.34,730.64"/>
    </edge>
    <edge id=":2168580990_0" function="internal">
        <lane id=":2168580990_0_0" index="0" disallow="tram rail_urban rail rail_electric rail_fast ship container cable_car subway aircraft wheelchair scooter drone" speed="27.78" length="0.34" shape="310.18,685.00 310.32,684.93 310.41,684.88 310.51,684.84 310.65,684.78"/>
        <lane id=":2168580990_0_1" index="1" disallow="tram rail_urban rail rail_electric rail_fast ship container cable_car subway aircraft wheelchair scooter drone" speed="27.78" length="0.34" shape="311.67,687.83 311.72,687.81 311.75,687.79 311.78,687.78 311.83,687.76"/>
    </edge>
    <edge id=":2168667464_0" function="internal">
        <lane id=":2168667464_0_0" index="0" allow="pedestrian delivery bicycle" speed="3.65" length="4.67" shape="1715.84,1014.82 1716.81,1013.76 1717.66,1013.48 1718.40,1014.00 1719.01,1015.30"/>
    </edge>
    <edge id=":2242540251_0" function="internal">
        <lane id=":2242540251_0_0" index="0" allow="pedestrian delivery bicycle" speed="5.04" length="5.00" shape="965.82,537.51 964.88,536.51 963.85,536.05 962.72,536.14 961.50,536.77"/>
    </edge>
    <edge id=":2242540251_1" function="internal">
        <lane id=":2242540251_1_0" index="0" allow="pedestrian delivery bicycle" speed="5.56" length="9.40" shape="965.82,537.51 960.40,529.83"/>
    </edge>
    <edge id=":2242540251_2" function="internal">
        <lane id=":2242540251_2_0" index="0" allow="pedestrian delivery bicycle" speed="3.65" length="4.67" shape="965.82,537.51 965.78,536.06 966.21,535.28 967.09,535.14 968.44,535.66"/>
    </edge>
    <edge id=":2242540251_3" function="internal">
        <lane id=":2242540251_3_0" index="0" allow="pedestrian delivery bicycle" speed="5.56" length="9.40" shape="963.02,527.98 968.44,535.66"/>
    </edge>
    <edge id=":2242540251_4" function="internal">
        <lane id=":2242540251_4_0" index="0" allow="pedestrian delivery bicycle" speed="5.56" length="10.16" shape="963.02,527.98 964.28,530.45 964.45,532.74 963.52,534.85 961.50,536.77"/>
    </edge>
    <edge id=":2242540251_5" function="internal">
        <lane id=":2242540251_5_0" index="0" allow="pedestrian delivery bicycle" speed="3.65" length="4.67" shape="963.02,527.98 963.05,529.42 962.63,530.21 961.75,530.35 960.40,529.83"/>
    </edge>
    <edge id=":2242540251_6" function="internal">
        <lane id=":2242540251_6_0" index="0" allow="pedestrian delivery bicycle" speed="5.06" length="5.02" shape="959.64,534.17 960.64,533.22 961.10,532.18 961.02,531.05 960.40,529.83"/>
    </edge>
    <edge id=":2242540251_7" function="internal">
        <lane id=":2242540251_7_0" index="0" allow="pedestrian delivery bicycle" speed="5.56" length="10.18" shape="959.64,534.17 962.12,532.88 964.42,532.71 966.52,533.63 968.44,535.66"/>
    </edge>
    <edge id=":2242540251_8" function="internal">
        <lane id=":2242540251_8_0" index="0" allow="pedestrian delivery bicycle" speed="3.65" length="4.67" shape="959.64,534.17 961.08,534.12 961.87,534.54 962.01,535.42 961.50,536.77"/>
    </edge>
    <edge id=":2242540254_0" function="internal">
        <lane id=":2242540254_0_0" index="0" allow="pedestrian delivery bicycle" speed="5.10" length="5.08" shape="994.51,578.13 993.57,577.14 992.52,576.70 991.36,576.79 990.09,577.41"/>
    </edge>
    <edge id=":2242540254_1" function="internal">
        <lane id=":2242540254_1_0" index="0" allow="pedestrian delivery bicycle" speed="5.56" length="9.40" shape="994.51,578.13 989.08,570.45"/>
    </edge>
    <edge id=":2242540254_2" function="internal">
        <lane id=":2242540254_2_0" index="0" allow="pedestrian delivery bicycle" speed="3.65" length="4.67" shape="994.51,578.13 994.47,576.69 994.89,575.90 995.78,575.76 997.12,576.28"/>
    </edge>
    <edge id=":2242540254_3" function="internal">
        <lane id=":2242540254_3_0" index="0" allow="pedestrian delivery bicycle" speed="5.56" length="9.40" shape="991.70,568.60 997.12,576.28"/>
    </edge>
    <edge id=":2242540254_4" function="internal">
        <lane id=":2242540254_4_0" index="0" allow="pedestrian delivery bicycle" speed="5.56" length="10.25" shape="991.70,568.60 992.98,571.11 993.14,573.42 992.18,575.52 990.09,577.41"/>
    </edge>
    <edge id=":2242540254_5" function="internal">
        <lane id=":2242540254_5_0" index="0" allow="pedestrian delivery bicycle" speed="3.65" length="4.67" shape="991.70,568.60 991.74,570.04 991.31,570.83 990.43,570.97 989.08,570.45"/>
    </edge>
    <edge id=":2242540254_6" function="internal">
        <lane id=":2242540254_6_0" index="0" allow="pedestrian delivery bicycle" speed="5.02" length="5.02" shape="988.30,574.76 989.32,573.83 989.79,572.81 989.71,571.68 989.08,570.45"/>
    </edge>
    <edge id=":2242540254_7" function="internal">
        <lane id=":2242540254_7_0" index="0" allow="pedestrian delivery bicycle" speed="5.56" length="10.17" shape="988.30,574.76 990.82,573.53 993.13,573.37 995.23,574.29 997.12,576.28"/>
    </edge>
    <edge id=":2242540254_8" function="internal">
        <lane id=":2242540254_8_0" index="0" allow="pedestrian delivery bicycle" speed="3.65" length="4.67" shape="988.30,574.76 989.74,574.75 990.52,575.19 990.64,576.08 990.09,577.41"/>
    </edge>
    <edge id=":2242540255_0" function="internal">
        <lane id=":2242540255_0_0" index="0" allow="pedestrian delivery bicycle" speed="5.56" length="9.40" shape="868.45,606.73 863.23,598.90"/>
    </edge>
    <edge id=":2242540255_1" function="internal">
        <lane id=":2242540255_1_0" index="0" allow="pedestrian delivery bicycle" speed="5.56" length="10.17" shape="868.45,606.73 867.27,604.26 867.18,601.97 868.15,599.85 870.20,597.92"/>
    </edge>
    <edge id=":2242540255_2" function="internal">
        <lane id=":2242540255_2_0" index="0" allow="pedestrian delivery bicycle" speed="3.65" length="4.67" shape="868.45,606.73 868.44,605.28 868.89,604.51 869.78,604.40 871.11,604.95"/>
    </edge>
    <edge id=":2242540255_3" function="internal">
        <lane id=":2242540255_3_0" index="0" allow="pedestrian delivery bicycle" speed="5.14" length="5.12" shape="872.06,600.53 871.01,601.51 870.50,602.58 870.53,603.72 871.11,604.95"/>
    </edge>
    <edge id=":2242540255_4" function="internal">
        <lane id=":2242540255_4_0" index="0" allow="pedestrian delivery bicycle" speed="5.56" length="10.31" shape="872.06,600.53 869.54,601.83 867.22,601.99 865.12,601.02 863.23,598.90"/>
    </edge>
    <edge id=":2242540255_5" function="internal">
        <lane id=":2242540255_5_0" index="0" allow="pedestrian delivery bicycle" speed="3.65" length="4.67" shape="872.06,600.53 870.62,600.57 869.83,600.15 869.69,599.27 870.20,597.92"/>
    </edge>
    <edge id=":2242540255_6" function="internal">
        <lane id=":2242540255_6_0" index="0" allow="pedestrian delivery bicycle" speed="5.01" length="5.04" shape="865.89,597.13 866.81,598.16 867.84,598.64 868.97,598.56 870.20,597.92"/>
    </edge>
    <edge id=":2242540255_7" function="internal">
        <lane id=":2242540255_7_0" index="0" allow="pedestrian delivery bicycle" speed="5.56" length="9.40" shape="865.89,597.13 871.11,604.95"/>
    </edge>
    <edge id=":2242540255_8" function="internal">
        <lane id=":2242540255_8_0" index="0" allow="pedestrian delivery bicycle" speed="3.65" length="4.67" shape="865.89,597.13 865.89,598.57 865.44,599.35 864.56,599.46 863.23,598.90"/>
    </edge>
    <edge id=":2242540261_0" function="internal">
        <lane id=":2242540261_0_0" index="0" allow="pedestrian delivery bicycle" speed="5.56" length="9.40" shape="894.57,645.88 889.35,638.06"/>
    </edge>
    <edge id=":2242540261_1" function="internal">
        <lane id=":2242540261_1_0" index="0" allow="pedestrian delivery bicycle" speed="5.56" length="10.16" shape="894.57,645.88 893.38,643.37 893.27,641.08 894.25,639.00 896.32,637.12"/>
    </edge>
    <edge id=":2242540261_2" function="internal">
        <lane id=":2242540261_2_0" index="0" allow="pedestrian delivery bicycle" speed="3.65" length="4.67" shape="894.57,645.88 894.57,644.43 895.01,643.66 895.90,643.55 897.23,644.10"/>
    </edge>
    <edge id=":2242540261_3" function="internal">
        <lane id=":2242540261_3_0" index="0" allow="pedestrian delivery bicycle" speed="5.06" length="5.03" shape="898.11,639.77 897.09,640.70 896.60,641.73 896.64,642.87 897.23,644.10"/>
    </edge>
    <edge id=":2242540261_4" function="internal">
        <lane id=":2242540261_4_0" index="0" allow="pedestrian delivery bicycle" speed="5.56" length="10.20" shape="898.11,639.77 895.60,641.00 893.30,641.12 891.22,640.14 889.35,638.06"/>
    </edge>
    <edge id=":2242540261_5" function="internal">
        <lane id=":2242540261_5_0" index="0" allow="pedestrian delivery bicycle" speed="3.65" length="4.67" shape="898.11,639.77 896.67,639.78 895.89,639.34 895.77,638.46 896.32,637.12"/>
    </edge>
    <edge id=":2242540261_6" function="internal">
        <lane id=":2242540261_6_0" index="0" allow="pedestrian delivery bicycle" speed="5.03" length="5.01" shape="892.01,636.28 892.93,637.30 893.95,637.78 895.08,637.72 896.32,637.12"/>
    </edge>
    <edge id=":2242540261_7" function="internal">
        <lane id=":2242540261_7_0" index="0" allow="pedestrian delivery bicycle" speed="5.56" length="9.40" shape="892.01,636.28 897.23,644.10"/>
    </edge>
    <edge id=":2242540261_8" function="internal">
        <lane id=":2242540261_8_0" index="0" allow="pedestrian delivery bicycle" speed="3.65" length="4.67" shape="892.01,636.28 892.02,637.72 891.57,638.50 890.68,638.61 889.35,638.06"/>
    </edge>
    <edge id=":2242540267_0" function="internal">
        <lane id=":2242540267_0_0" index="0" allow="pedestrian delivery bicycle" speed="5.56" length="11.97" shape="941.05,706.54 937.51,705.16 934.40,704.45 931.74,704.40 929.50,705.02"/>
    </edge>
    <edge id=":2242540267_1" function="internal">
        <lane id=":2242540267_1_0" index="0" allow="pedestrian delivery bicycle" speed="5.56" length="14.76" shape="941.05,706.54 937.68,704.90 934.51,703.01 931.67,700.72 929.30,697.91"/>
    </edge>
    <edge id=":2242540267_2" function="internal">
        <lane id=":2242540267_2_0" index="0" allow="pedestrian delivery bicycle" speed="5.56" length="15.92" shape="941.05,706.54 936.71,703.93 935.30,701.39 936.83,698.93 941.29,696.53"/>
    </edge>
    <edge id=":2242540267_3" function="internal">
        <lane id=":2242540267_3_0" index="0" allow="pedestrian delivery bicycle" speed="3.65" length="4.67" shape="941.05,706.54 940.29,705.31 940.25,704.42 940.95,703.86 942.37,703.63"/>
    </edge>
    <edge id=":2242540267_4" function="internal">
        <lane id=":2242540267_4_0" index="0" allow="pedestrian delivery bicycle" speed="4.67" length="6.56" shape="942.47,699.51 940.64,700.49 940.01,701.51 940.59,702.55 942.37,703.63"/>
    </edge>
    <edge id=":2242540267_5" function="internal">
        <lane id=":2242540267_5_0" index="0" allow="pedestrian delivery bicycle" speed="5.56" length="14.09" shape="942.47,699.51 929.50,705.02"/>
    </edge>
    <edge id=":2242540267_6" function="internal">
        <lane id=":2242540267_6_0" index="0" allow="pedestrian delivery bicycle" speed="5.56" length="14.40" shape="942.47,699.51 938.06,700.83 934.40,701.01 931.47,700.04 929.30,697.91"/>
    </edge>
    <edge id=":2242540267_7" function="internal">
        <lane id=":2242540267_7_0" index="0" allow="pedestrian delivery bicycle" speed="3.65" length="4.67" shape="942.47,699.51 941.06,699.21 940.39,698.61 940.47,697.72 941.29,696.53"/>
    </edge>
    <edge id=":2242540267_8" function="internal">
        <lane id=":2242540267_8_0" index="0" allow="pedestrian delivery bicycle" speed="5.56" length="10.04" shape="931.96,696.13 933.36,697.38 935.38,697.86 938.02,697.58 941.29,696.53"/>
    </edge>
    <edge id=":2242540267_9" function="internal">
        <lane id=":2242540267_9_0" index="0" allow="pedestrian delivery bicycle" speed="5.56" length="13.03" shape="931.96,696.13 934.12,698.77 936.50,700.66 939.22,702.16 942.37,703.63"/>
    </edge>
    <edge id=":2242540267_10" function="internal">
        <lane id=":2242540267_10_0" index="0" allow="pedestrian delivery bicycle" speed="5.56" length="10.91" shape="931.96,696.13 933.28,698.89 933.30,701.29 932.05,703.33 929.50,705.02"/>
    </edge>
    <edge id=":2242540267_11" function="internal">
        <lane id=":2242540267_11_0" index="0" allow="pedestrian delivery bicycle" speed="3.65" length="4.67" shape="931.96,696.13 931.96,697.58 931.52,698.35 930.63,698.46 929.30,697.91"/>
    </edge>
    <edge id=":2242540267_12" function="internal">
        <lane id=":2242540267_12_0" index="0" allow="pedestrian delivery bicycle" speed="4.90" length="5.18" shape="928.13,702.13 929.34,701.33 929.94,700.36 929.92,699.22 929.30,697.91"/>
    </edge>
    <edge id=":2242540267_13" function="internal">
        <lane id=":2242540267_13_0" index="0" allow="pedestrian delivery bicycle" speed="5.56" length="14.30" shape="928.13,702.13 941.29,696.53"/>
    </edge>
    <edge id=":2242540267_14" function="internal">
        <lane id=":2242540267_14_0" index="0" allow="pedestrian delivery bicycle" speed="5.56" length="14.74" shape="928.13,702.13 931.04,701.27 934.38,701.23 938.16,702.02 942.37,703.63"/>
    </edge>
    <edge id=":2242540267_15" function="internal">
        <lane id=":2242540267_15_0" index="0" allow="pedestrian delivery bicycle" speed="3.65" length="4.67" shape="928.13,702.13 929.56,702.34 930.26,702.89 930.24,703.79 929.50,705.02"/>
    </edge>
    <edge id=":2242540273_0" function="internal">
        <lane id=":2242540273_0_0" index="0" allow="pedestrian delivery bicycle" speed="3.65" length="4.67" shape="1423.14,826.94 1423.89,828.17 1423.92,829.06 1423.22,829.62 1421.79,829.84"/>
    </edge>
    <edge id=":245653671_0" function="internal">
        <lane id=":245653671_0_0" index="0" disallow="tram rail_urban rail rail_electric rail_fast ship container cable_car subway aircraft wheelchair scooter drone" speed="22.22" length="0.17" shape="263.89,330.22 263.76,330.12"/>
    </edge>
    <edge id=":245653671_1" function="internal">
        <lane id=":245653671_1_0" index="0" disallow="tram rail_urban rail rail_electric rail_fast ship container cable_car subway aircraft wheelchair scooter drone" speed="22.22" length="0.30" shape="267.49,324.92 267.77,325.13"/>
        <lane id=":245653671_1_1" index="1" disallow="tram rail_urban rail rail_electric rail_fast ship container cable_car subway aircraft wheelchair scooter drone" speed="22.22" length="0.30" shape="265.63,327.52 265.83,327.67"/>
    </edge>
    <edge id=":245653748_0" function="internal">
        <lane id=":245653748_0_0" index="0" disallow="tram rail_urban rail rail_electric rail_fast ship container cable_car subway aircraft wheelchair scooter drone" speed="17.45" length="21.39" shape="586.22,579.76 580.84,577.13 576.97,575.30 572.99,574.61 567.27,575.35"/>